@<TRIPOS>MOLECULE
ligand.pdb
67 71 1 0 0
SMALL
AMBER ff14SB


@<TRIPOS>ATOM
      1 N1        -32.0820    1.6940  -39.7040 N.ar      1 5MV   -0.1803
      2 N3        -27.2990    5.9770  -34.7060 N.am      1 5MV   -0.3110
      3 C4        -37.0510    1.8110  -41.0300 C.ar      1 5MV   -0.0248
      4 C5        -36.9220    1.2550  -39.7500 C.ar      1 5MV    0.0427
      5 C6        -35.6450    1.0170  -39.2110 C.ar      1 5MV   -0.0339
      6 C7        -33.1720    1.0560  -39.3210 C.ar      1 5MV    0.0907
      7 C8        -32.8920    0.1390  -38.2720 C.ar      1 5MV   -0.0104
      8 C10       -30.4550   -1.1390  -34.6860 C.ar      1 5MV   -0.0536
      9 C13       -29.5540   -1.1570  -37.3610 C.ar      1 5MV   -0.0451
     10 C15       -29.2750   -1.8180  -35.0100 C.ar      1 5MV   -0.0158
     11 C17       -27.3550   -3.1760  -34.3070 C.ar      1 5MV    0.0751
     12 C20       -29.7320    1.7480  -39.1140 C.3       1 5MV    0.0678
     13 C21       -28.9070    4.7000  -35.9900 C.ar      1 5MV    0.0370
     14 C22       -27.8660    3.9620  -36.5820 C.ar      1 5MV   -0.0493
     15 C24       -29.4690    2.8000  -38.0220 C.ar      1 5MV   -0.0258
     16 C26       -30.2370    4.4870  -36.4060 C.ar      1 5MV   -0.0493
     17 C28       -28.5870    5.6900  -34.9220 C.2       1 5MV    0.2429
     18 C1        -34.4770    1.3250  -39.9410 C.ar      1 5MV    0.0048
     19 C2        -34.6150    1.8920  -41.2300 C.ar      1 5MV   -0.0339
     20 C3        -35.8960    2.1280  -41.7650 C.ar      1 5MV    0.0427
     21 CL1       -36.0690    2.8080  -43.3360 Cl        1 5MV   -0.0843
     22 CL2       -38.3270    0.8630  -38.8340 Cl        1 5MV   -0.0843
     23 C9        -31.5540    0.2510  -38.0390 C.ar      1 5MV    0.0609
     24 C11       -31.1680   -0.4810  -35.6930 C.ar      1 5MV   -0.0524
     25 C12       -30.7470   -0.4710  -37.0400 C.ar      1 5MV   -0.0018
     26 C14       -28.8220   -1.8290  -36.3510 C.ar      1 5MV   -0.0175
     27 C16       -28.5510   -2.4830  -33.9990 C.ar      1 5MV   -0.0239
     28 C18       -26.9110   -3.1820  -35.6440 C.ar      1 5MV   -0.0312
     29 C19       -27.6340   -2.5190  -36.6550 C.ar      1 5MV   -0.0518
     30 C25       -30.5150    3.5410  -37.4120 C.ar      1 5MV   -0.0563
     31 N2        -31.0790    1.2090  -38.9330 N.ar      1 5MV   -0.2171
     32 O1        -26.5950   -3.8490  -33.3750 O.3       1 5MV   -0.3493
     33 C27       -26.6640   -3.3970  -32.0290 C.3       1 5MV    0.0422
     34 O2        -29.5060    6.1930  -34.2850 O.2       1 5MV   -0.2719
     35 C29       -26.8570    6.9180  -33.6870 C.3       1 5MV    0.0165
     36 C30       -27.0710    6.3810  -32.2630 C.3       1 5MV    0.0025
     37 C31       -26.5520    7.3620  -31.2210 C.2       1 5MV    0.0429
     38 O3        -27.3490    7.7650  -30.3480 O.co2     1 5MV   -0.5501
     39 O4        -25.3480    7.7050  -31.3010 O.co2     1 5MV   -0.5501
     40 C32       -29.5920    2.3540  -40.5240 C.3       1 5MV   -0.0403
     41 C23       -28.1450    3.0210  -37.5850 C.ar      1 5MV   -0.0563
     42 H3        -26.6010    5.5200  -35.2760 H         1 5MV    0.1497
     43 H4        -38.0300    1.9940  -41.4480 H         1 5MV    0.0654
     44 H6        -35.5570    0.5920  -38.2220 H         1 5MV    0.0646
     45 H8        -33.5920   -0.5100  -37.7660 H         1 5MV    0.0667
     46 H10       -30.8120   -1.1230  -33.6670 H         1 5MV    0.0629
     47 H13       -29.1990   -1.1690  -38.3810 H         1 5MV    0.0636
     48 H20       -29.0100    0.9380  -39.0050 H         1 5MV    0.0575
     49 H22       -26.8460    4.1200  -36.2630 H         1 5MV    0.0631
     50 H26       -31.0420    5.0480  -35.9540 H         1 5MV    0.0631
     51 H2        -33.7360    2.1440  -41.8050 H         1 5MV    0.0646
     52 H11       -32.0770    0.0400  -35.4300 H         1 5MV    0.0630
     53 H16       -28.9120   -2.4640  -32.9810 H         1 5MV    0.0657
     54 H18       -26.0000   -3.7040  -35.8980 H         1 5MV    0.0651
     55 H19       -27.2730   -2.5410  -37.6730 H         1 5MV    0.0630
     56 H25       -31.5360    3.3770  -37.7230 H         1 5MV    0.0627
     57 H292      -25.7950    7.1160  -33.8310 H         1 5MV    0.0471
     58 H293      -27.4100    7.8500  -33.8010 H         1 5MV    0.0471
     59 H302      -28.1370    6.2200  -32.1000 H         1 5MV    0.0345
     60 H303      -26.5450    5.4320  -32.1550 H         1 5MV    0.0345
     61 H23       -27.3360    2.4590  -38.0280 H         1 5MV    0.0627
     62 H271      -25.8650   -3.8590  -31.4490 H         1 5MV    0.0535
     63 H272      -27.6290   -3.6720  -31.6020 H         1 5MV    0.0535
     64 H273      -26.5520   -2.3130  -32.0040 H         1 5MV    0.0535
     65 H321      -28.5430    2.5710  -40.7240 H         1 5MV    0.0254
     66 H322      -30.1710    3.2750  -40.5820 H         1 5MV    0.0254
     67 H323      -29.9630    1.6440  -41.2630 H         1 5MV    0.0254
@<TRIPOS>BOND
     1   18    5 ar
     2   18    6 1
     3   18   19 ar
     4    8   10 ar
     5    8   24 ar
     6    8   46 1
     7   24   25 ar
     8   24   52 1
     9   25    9 ar
    10   25   23 1
    11    9   26 ar
    12    9   47 1
    13   26   10 ar
    14   26   29 ar
    15   10   27 ar
    16   27   11 ar
    17   27   53 1
    18   11   28 ar
    19   11   32 1
    20   28   29 ar
    21   28   54 1
    22   29   55 1
    23   19   20 ar
    24   19   51 1
    25   12   15 1
    26   12   31 1
    27   12   40 1
    28   12   48 1
    29   13   14 ar
    30   13   16 ar
    31   13   17 1
    32   14   41 ar
    33   14   49 1
    34   41   15 ar
    35   41   61 1
    36   15   30 ar
    37   30   16 ar
    38   30   56 1
    39   16   50 1
    40   33   32 1
    41   33   62 1
    42   33   63 1
    43   33   64 1
    44   17    2 am
    45   17   34 2
    46   35    2 1
    47   35   36 1
    48   35   57 1
    49   35   58 1
    50   20    3 ar
    51   20   21 1
    52   36   37 1
    53   36   59 1
    54   36   60 1
    55   37   38 2
    56   37   39 2
    57   40   65 1
    58   40   66 1
    59   40   67 1
    60    3    4 ar
    61    3   43 1
    62    4    5 ar
    63    4   22 1
    64    5   44 1
    65    6    1 ar
    66    6    7 ar
    67    7   23 ar
    68    7   45 1
    69   23   31 ar
    70   42    2 1
    71    1   31 ar
@<TRIPOS>SUBSTRUCTURE
     1 5MV     1 RESIDUE           4 A     5MV     0 ROOT
