@<TRIPOS>MOLECULE
ligand.pdb
9 9 1 0 0
SMALL
NO_CHARGES


@<TRIPOS>ATOM
      1 N1        -32.0820    1.6940  -39.7040 N.ar      1 5MV    0.0000
      2 C7        -33.1720    1.0560  -39.3210 C.ar      1 5MV    0.0000
      3 C8        -32.8920    0.1390  -38.2720 C.ar      1 5MV    0.0000
      4 C9        -31.5540    0.2510  -38.0390 C.ar      1 5MV    0.0000
      5 N2        -31.0790    1.2090  -38.9330 N.ar      1 5MV    0.0000
      6 H8        -33.5920   -0.5100  -37.7660 H         1 5MV    0.0000
      7 H7        -34.1511    1.2109  -39.7497 H         1 5MV    0.0000
      8 H9        -30.9765   -0.2942  -37.3071 H         1 5MV    0.0000
      9 H2        -30.1148    1.5028  -38.9975 H         1 5MV    0.0000
@<TRIPOS>BOND
     1    2    1 ar
     2    2    3 ar
     3    3    4 ar
     4    3    6 1
     5    4    5 ar
     6    1    5 ar
     7    7    2 1
     8    8    4 1
     9    9    5 1
@<TRIPOS>SUBSTRUCTURE
     1 5MV     1 RESIDUE           4 A     5MV     0 ROOT
