REMARK  17 active torsions:
REMARK  status: ('A' for Active; 'I' for Inactive)
REMARK       I    between atoms: C36_1  and  N38_3 
REMARK    1  A    between atoms: C36_1  and  C20_5 
REMARK    2  A    between atoms: N38_3  and  C40_46 
REMARK    3  A    between atoms: C20_5  and  N15_7 
REMARK    4  A    between atoms: C20_5  and  C22_35 
REMARK       I    between atoms: N23_17  and  C24_18 
REMARK    5  A    between atoms: C24_18  and  O25_21 
REMARK    6  A    between atoms: O25_21  and  C27_22 
REMARK    7  A    between atoms: C27_22  and  C31_23 
REMARK    8  A    between atoms: C27_22  and  C33_27 
REMARK    9  A    between atoms: C27_22  and  C32_31 
REMARK   10  A    between atoms: C22_35  and  C29_38 
REMARK   11  A    between atoms: C40_46  and  C42_48 
REMARK   12  A    between atoms: C40_46  and  C57_63 
REMARK   13  A    between atoms: C42_48  and  C45_51 
REMARK   14  A    between atoms: C57_63  and  C35_65 
REMARK   15  A    between atoms: C57_63  and  O40_83 
REMARK       I    between atoms: C35_65  and  N36_66 
REMARK   16  A    between atoms: N36_66  and  C13_69 
REMARK   17  A    between atoms: C13_69  and  C14_72 
ROOT
HETATM    1  C36 O6K A 502      12.364   2.579  23.638  1.00 40.96     0.241 C 
HETATM    2  O37 O6K A 502      12.820   1.744  24.420  1.00 39.67    -0.271 OA
HETATM    3  N38 O6K A 502      11.047   2.755  23.440  1.00 36.33    -0.352 N 
ATOM      4  H38 O6K A 502      10.743   3.498  22.812  1.00  0.00     0.163 HD
ENDROOT
BRANCH   1   5
HETATM    5  C20 O6K A 502      13.296   3.453  22.840  1.00 36.49     0.096 C 
ATOM      6  H20 O6K A 502      14.219   2.872  22.610  1.00  0.00     0.088 H 
BRANCH   5   7
HETATM    7  N15 O6K A 502      12.595   3.730  21.586  1.00 40.73    -0.309 N 
HETATM    8  C16 O6K A 502      12.090   4.946  21.268  1.00 45.88    -0.016 A 
HETATM    9  C17 O6K A 502      11.383   5.184  20.094  1.00 41.48    -0.066 A 
ATOM     10  H16 O6K A 502      12.246   5.783  21.970  1.00  0.00     0.111 H 
HETATM   11  C18 O6K A 502      11.179   4.166  19.185  1.00 44.13    -0.050 A 
ATOM     12  H17 O6K A 502      10.983   6.191  19.889  1.00  0.00     0.085 H 
HETATM   13  C19 O6K A 502      11.671   2.874  19.455  1.00 40.01     0.105 A 
ATOM     14  H18 O6K A 502      10.631   4.364  18.248  1.00  0.00     0.087 H 
HETATM   15  C21 O6K A 502      12.392   2.639  20.717  1.00 42.88     0.275 A 
HETATM   16  N23 O6K A 502      11.508   1.785  18.667  1.00 44.38    -0.298 N 
HETATM   17  O22 O6K A 502      12.822   1.485  21.023  1.00 40.80    -0.265 OA
HETATM   18  C24 O6K A 502      10.761   1.689  17.562  1.00 48.13     0.366 C 
ATOM     19  H23 O6K A 502      12.011   0.944  18.948  1.00  0.00     0.171 HD
HETATM   20  O26 O6K A 502      10.193   2.616  17.008  1.00 55.82    -0.238 OA
BRANCH  18  21
HETATM   21  O25 O6K A 502      10.666   0.347  17.017  1.00 49.37    -0.294 OA
BRANCH  21  22
HETATM   22  C27 O6K A 502       9.852  -0.717  17.542  1.00 55.84     0.061 C 
BRANCH  22  23
HETATM   23  C31 O6K A 502      10.774  -1.694  18.293  1.00 51.10    -0.048 C 
ATOM     24 3H31 O6K A 502      11.615  -2.065  17.662  1.00  0.00     0.031 H 
ATOM     25 2H31 O6K A 502      11.387  -1.192  19.078  1.00  0.00     0.031 H 
ATOM     26 1H31 O6K A 502      10.143  -2.519  18.700  1.00  0.00     0.031 H 
ENDBRANCH  22  23
BRANCH  22  27
HETATM   27  C33 O6K A 502       9.105  -1.443  16.415  1.00 59.65    -0.048 C 
ATOM     28 3H33 O6K A 502       8.507  -0.735  15.795  1.00  0.00     0.031 H 
ATOM     29 2H33 O6K A 502       9.804  -1.810  15.627  1.00  0.00     0.031 H 
ATOM     30 1H33 O6K A 502       8.474  -2.268  16.822  1.00  0.00     0.031 H 
ENDBRANCH  22  27
BRANCH  22  31
HETATM   31  C32 O6K A 502       8.798  -0.115  18.484  1.00 50.94    -0.048 C 
ATOM     32 3H32 O6K A 502       9.252   0.510  19.288  1.00  0.00     0.031 H 
ATOM     33 2H32 O6K A 502       8.192   0.682  17.992  1.00  0.00     0.031 H 
ATOM     34 1H32 O6K A 502       8.167  -0.940  18.891  1.00  0.00     0.031 H 
ENDBRANCH  22  31
ENDBRANCH  21  22
ENDBRANCH  18  21
ENDBRANCH   5   7
BRANCH   5  35
HETATM   35  C22 O6K A 502      13.692   4.711  23.625  1.00 35.21    -0.034 C 
ATOM     36 2H22 O6K A 502      14.748   4.658  23.980  1.00  0.00     0.037 H 
ATOM     37 1H22 O6K A 502      13.781   5.600  22.958  1.00  0.00     0.037 H 
BRANCH  35  38
HETATM   38  C29 O6K A 502      12.721   4.967  24.780  1.00 36.38    -0.052 A 
HETATM   39  C34 O6K A 502      13.277   5.184  26.184  1.00 36.80    -0.061 A 
HETATM   40  C30 O6K A 502      12.814   6.384  25.368  1.00 34.06    -0.061 A 
ATOM     41 2H34 O6K A 502      13.033   4.782  27.195  1.00  0.00     0.033 H 
ATOM     42 1H34 O6K A 502      14.224   4.907  26.704  1.00  0.00     0.033 H 
ATOM     43 2H30 O6K A 502      13.277   7.345  25.044  1.00  0.00     0.033 H 
ATOM     44 1H30 O6K A 502      12.095   7.220  25.531  1.00  0.00     0.033 H 
ATOM     45  H29 O6K A 502      11.705   4.515  24.700  1.00  0.00     0.040 H 
ENDBRANCH  35  38
ENDBRANCH   5  35
ENDBRANCH   1   5
BRANCH   3  46
HETATM   46  C40 O6K A 502      10.053   1.945  24.074  1.00 37.49     0.046 C 
ATOM     47  H40 O6K A 502      10.555   1.022  24.448  1.00  0.00     0.077 H 
BRANCH  46  48
HETATM   48  C42 O6K A 502       9.360   2.636  25.291  1.00 32.82    -0.032 C 
ATOM     49 2H42 O6K A 502      10.091   3.072  26.011  1.00  0.00     0.037 H 
ATOM     50 1H42 O6K A 502       8.842   3.583  25.010  1.00  0.00     0.037 H 
BRANCH  48  51
HETATM   51  C45 O6K A 502       8.439   1.642  25.932  1.00 30.60     0.027 C 
HETATM   52  C54 O6K A 502       9.003   0.217  26.001  1.00 33.95    -0.039 C 
HETATM   53  C51 O6K A 502       7.776  -0.683  26.072  1.00 39.28    -0.004 C 
ATOM     54 2H54 O6K A 502       9.702  -0.035  25.170  1.00  0.00     0.036 H 
ATOM     55 1H54 O6K A 502       9.731   0.057  26.830  1.00  0.00     0.036 H 
HETATM   56  N49 O6K A 502       6.775   0.112  25.352  1.00 37.90    -0.361 N 
ATOM     57 2H51 O6K A 502       7.926  -1.718  25.685  1.00  0.00     0.064 H 
ATOM     58 1H51 O6K A 502       7.480  -0.998  27.100  1.00  0.00     0.064 H 
HETATM   59  C47 O6K A 502       7.093   1.415  25.278  1.00 34.72     0.221 C 
ATOM     60  H49 O6K A 502       5.926  -0.284  24.950  1.00  0.00     0.162 HD
HETATM   61  O48 O6K A 502       6.418   2.328  24.811  1.00 30.70    -0.273 OA
ATOM     62  H45 O6K A 502       8.252   1.981  26.978  1.00  0.00     0.054 H 
ENDBRANCH  48  51
ENDBRANCH  46  48
BRANCH  46  63
HETATM   63  C57 O6K A 502       9.211   1.557  22.864  1.00 43.89     0.131 C 
ATOM     64  H57 O6K A 502       8.141   1.468  23.164  1.00  0.00     0.101 H 
BRANCH  63  65
HETATM   65  C35 O6K A 502       9.685   0.268  22.326  1.00 48.12     0.248 C 
HETATM   66  N36 O6K A 502       9.099  -0.803  22.936  1.00 55.97    -0.355 N 
ATOM     67  H36 O6K A 502       8.399  -0.608  23.651  1.00  0.00     0.162 HD
HETATM   68  O41 O6K A 502      10.546   0.316  21.467  1.00 36.04    -0.271 OA
BRANCH  66  69
HETATM   69  C13 O6K A 502       9.392  -2.207  22.650  1.00 57.51     0.019 C 
ATOM     70 2H13 O6K A 502       8.901  -2.545  21.708  1.00  0.00     0.071 H 
ATOM     71 1H13 O6K A 502      10.456  -2.351  22.349  1.00  0.00     0.071 H 
BRANCH  69  72
HETATM   72  C14 O6K A 502       9.017  -3.097  23.828  1.00 59.70    -0.041 A 
HETATM   73  C15 O6K A 502      10.000  -3.457  24.761  1.00 63.38    -0.075 A 
HETATM   74  C23 O6K A 502       9.688  -4.262  25.861  1.00 58.15    -0.082 A 
ATOM     75  H15 O6K A 502      11.035  -3.100  24.625  1.00  0.00     0.084 H 
HETATM   76  C25 O6K A 502       8.379  -4.714  26.035  1.00 61.49    -0.083 A 
ATOM     77  H23 O6K A 502      10.471  -4.538  26.587  1.00  0.00     0.083 H 
HETATM   78  C26 O6K A 502       7.391  -4.358  25.108  1.00 61.74    -0.082 A 
ATOM     79  H25 O6K A 502       8.123  -5.349  26.900  1.00  0.00     0.083 H 
HETATM   80  C28 O6K A 502       7.711  -3.554  24.011  1.00 55.48    -0.075 A 
ATOM     81  H26 O6K A 502       6.356  -4.714  25.245  1.00  0.00     0.083 H 
ATOM     82  H28 O6K A 502       6.927  -3.279  23.286  1.00  0.00     0.084 H 
ENDBRANCH  69  72
ENDBRANCH  66  69
ENDBRANCH  63  65
BRANCH  63  83
HETATM   83  O40 O6K A 502       9.328   2.453  21.695  1.00 40.57    -0.384 OA
ATOM     84  H40 O6K A 502      10.242   2.710  21.725  1.00  0.00     0.210 HD
ENDBRANCH  63  83
ENDBRANCH  46  63
ENDBRANCH   3  46
TORSDOF 17
