REMARK  17 active torsions:
REMARK  status: ('A' for Active; 'I' for Inactive)
REMARK       I    between atoms: C36_1  and  N38_3 
REMARK    1  A    between atoms: C36_1  and  C20_5 
REMARK    2  A    between atoms: N38_3  and  C40_46 
REMARK    3  A    between atoms: C20_5  and  N15_7 
REMARK    4  A    between atoms: C20_5  and  C22_35 
REMARK       I    between atoms: N23_17  and  C24_18 
REMARK    5  A    between atoms: C24_18  and  O25_21 
REMARK    6  A    between atoms: O25_21  and  C27_22 
REMARK    7  A    between atoms: C27_22  and  C31_23 
REMARK    8  A    between atoms: C27_22  and  C33_27 
REMARK    9  A    between atoms: C27_22  and  C32_31 
REMARK   10  A    between atoms: C22_35  and  C29_38 
REMARK   11  A    between atoms: C40_46  and  C42_48 
REMARK   12  A    between atoms: C40_46  and  C57_63 
REMARK   13  A    between atoms: C42_48  and  C45_51 
REMARK   14  A    between atoms: C57_63  and  C35_65 
REMARK   15  A    between atoms: C57_63  and  O40_83 
REMARK       I    between atoms: C35_65  and  N36_66 
REMARK   16  A    between atoms: N36_66  and  C13_69 
REMARK   17  A    between atoms: C13_69  and  C14_72 
ROOT
HETATM    1  C36 O6K A 502       9.710  -1.567  22.114  1.00 40.96     0.241 C 
HETATM    2  O37 O6K A 502       9.339  -2.539  21.455  1.00 39.67    -0.271 OA
HETATM    3  N38 O6K A 502      10.105  -0.411  21.556  1.00 36.33    -0.352 N 
ATOM      4  H38 O6K A 502      10.353   0.367  22.167  1.00  0.00     0.163 HD
ENDROOT
BRANCH   1   5
HETATM    5  C20 O6K A 502       9.746  -1.645  23.618  1.00 36.49     0.096 C 
ATOM      6  H20 O6K A 502      10.748  -2.022  23.930  1.00  0.00     0.088 H 
BRANCH   5   7
HETATM    7  N15 O6K A 502       9.601  -0.266  24.085  1.00 40.73    -0.309 N 
HETATM    8  C16 O6K A 502       8.408   0.288  24.411  1.00 45.88    -0.016 A 
HETATM    9  C17 O6K A 502       8.278   1.615  24.806  1.00 41.48    -0.066 A 
ATOM     10  H16 O6K A 502       7.502  -0.340  24.361  1.00  0.00     0.111 H 
HETATM   11  C18 O6K A 502       9.389   2.428  24.895  1.00 44.13    -0.050 A 
ATOM     12  H17 O6K A 502       7.281   2.020  25.049  1.00  0.00     0.085 H 
HETATM   13  C19 O6K A 502      10.660   1.919  24.564  1.00 40.01     0.105 A 
ATOM     14  H18 O6K A 502       9.282   3.475  25.225  1.00  0.00     0.087 H 
HETATM   15  C21 O6K A 502      10.770   0.519  24.120  1.00 42.88     0.275 A 
HETATM   16  N23 O6K A 502      11.819   2.619  24.574  1.00 44.38    -0.298 N 
HETATM   17  O22 O6K A 502      11.887   0.025  23.777  1.00 40.80    -0.265 OA
HETATM   18  C24 O6K A 502      11.971   3.932  24.774  1.00 48.13     0.366 C 
ATOM     19  H23 O6K A 502      12.672   2.084  24.409  1.00  0.00     0.171 HD
HETATM   20  O26 O6K A 502      11.087   4.705  25.108  1.00 55.82    -0.238 OA
BRANCH  18  21
HETATM   21  O25 O6K A 502      13.325   4.417  24.576  1.00 49.37    -0.294 OA
BRANCH  21  22
HETATM   22  C27 O6K A 502      13.981   4.577  23.305  1.00 55.84     0.061 C 
BRANCH  22  23
HETATM   23  C31 O6K A 502      13.002   5.284  22.351  1.00 51.10    -0.048 C 
ATOM     24 3H31 O6K A 502      12.023   4.756  22.268  1.00  0.00     0.031 H 
ATOM     25 2H31 O6K A 502      12.618   6.246  22.762  1.00  0.00     0.031 H 
ATOM     26 1H31 O6K A 502      13.510   5.408  21.366  1.00  0.00     0.031 H 
ENDBRANCH  22  23
BRANCH  22  27
HETATM   27  C33 O6K A 502      14.402   3.218  22.731  1.00 59.65    -0.048 C 
ATOM     28 3H33 O6K A 502      15.032   2.645  23.450  1.00  0.00     0.031 H 
ATOM     29 2H33 O6K A 502      13.540   2.514  22.664  1.00  0.00     0.031 H 
ATOM     30 1H33 O6K A 502      14.910   3.342  21.746  1.00  0.00     0.031 H 
ENDBRANCH  22  27
BRANCH  22  31
HETATM   31  C32 O6K A 502      15.256   5.410  23.508  1.00 50.94    -0.048 C 
ATOM     32 3H32 O6K A 502      15.053   6.385  24.008  1.00  0.00     0.031 H 
ATOM     33 2H32 O6K A 502      15.929   4.976  24.283  1.00  0.00     0.031 H 
ATOM     34 1H32 O6K A 502      15.764   5.534  22.523  1.00  0.00     0.031 H 
ENDBRANCH  22  31
ENDBRANCH  21  22
ENDBRANCH  18  21
ENDBRANCH   5   7
BRANCH   5  35
HETATM   35  C22 O6K A 502       8.673  -2.603  24.155  1.00 35.21    -0.034 C 
ATOM     36 2H22 O6K A 502       7.713  -2.073  24.356  1.00  0.00     0.037 H 
ATOM     37 1H22 O6K A 502       8.317  -3.306  23.366  1.00  0.00     0.037 H 
BRANCH  35  38
HETATM   38  C29 O6K A 502       9.174  -3.351  25.392  1.00 36.38    -0.052 A 
HETATM   39  C34 O6K A 502       8.192  -4.194  26.200  1.00 36.80    -0.061 A 
HETATM   40  C30 O6K A 502       9.159  -4.881  25.243  1.00 34.06    -0.061 A 
ATOM     41 2H34 O6K A 502       7.956  -4.298  27.285  1.00  0.00     0.033 H 
ATOM     42 1H34 O6K A 502       7.085  -4.197  26.332  1.00  0.00     0.033 H 
ATOM     43 2H30 O6K A 502       9.055  -5.591  24.389  1.00  0.00     0.033 H 
ATOM     44 1H30 O6K A 502       9.919  -5.691  25.335  1.00  0.00     0.033 H 
ATOM     45  H29 O6K A 502      10.033  -2.903  25.944  1.00  0.00     0.040 H 
ENDBRANCH  35  38
ENDBRANCH   5  35
ENDBRANCH   1   5
BRANCH   3  46
HETATM   46  C40 O6K A 502      10.191  -0.223  20.141  1.00 37.49     0.046 C 
ATOM     47  H40 O6K A 502      10.179  -1.231  19.664  1.00  0.00     0.077 H 
BRANCH  46  48
HETATM   48  C42 O6K A 502       9.008   0.600  19.541  1.00 32.82    -0.032 C 
ATOM     49 2H42 O6K A 502       8.105   0.593  20.194  1.00  0.00     0.037 H 
ATOM     50 1H42 O6K A 502       9.197   1.699  19.557  1.00  0.00     0.037 H 
BRANCH  48  51
HETATM   51  C45 O6K A 502       8.728   0.082  18.162  1.00 30.60     0.027 C 
HETATM   52  C54 O6K A 502       9.196  -1.359  17.927  1.00 33.95    -0.039 C 
HETATM   53  C51 O6K A 502       9.402  -1.460  16.420  1.00 39.28    -0.004 C 
ATOM     54 2H54 O6K A 502      10.090  -1.649  18.527  1.00  0.00     0.036 H 
ATOM     55 1H54 O6K A 502       8.509  -2.132  18.343  1.00  0.00     0.036 H 
HETATM   56  N49 O6K A 502       9.749  -0.078  16.070  1.00 37.90    -0.361 N 
ATOM     57 2H51 O6K A 502      10.139  -2.230  16.094  1.00  0.00     0.064 H 
ATOM     58 1H51 O6K A 502       8.544  -1.891  15.853  1.00  0.00     0.064 H 
HETATM   59  C47 O6K A 502       9.365   0.813  17.000  1.00 34.72     0.221 C 
ATOM     60  H49 O6K A 502      10.232   0.180  15.209  1.00  0.00     0.162 HD
HETATM   61  O48 O6K A 502       9.448   2.037  16.947  1.00 30.70    -0.273 OA
ATOM     62  H45 O6K A 502       7.624   0.106  18.011  1.00  0.00     0.054 H 
ENDBRANCH  48  51
ENDBRANCH  46  48
BRANCH  46  63
HETATM   63  C57 O6K A 502      11.609   0.327  20.028  1.00 43.89     0.131 C 
ATOM     64  H57 O6K A 502      12.253  -0.130  20.815  1.00  0.00     0.101 H 
BRANCH  63  65
HETATM   65  C35 O6K A 502      11.584   1.792  20.196  1.00 48.12     0.248 C 
HETATM   66  N36 O6K A 502      11.891   2.457  19.045  1.00 55.97    -0.355 N 
ATOM     67  H36 O6K A 502      12.070   1.895  18.213  1.00  0.00     0.162 HD
HETATM   68  O41 O6K A 502      11.346   2.212  21.314  1.00 36.04    -0.271 OA
BRANCH  66  69
HETATM   69  C13 O6K A 502      11.987   3.910  18.904  1.00 57.51     0.019 C 
ATOM     70 2H13 O6K A 502      11.490   4.265  17.971  1.00  0.00     0.071 H 
ATOM     71 1H13 O6K A 502      11.347   4.438  19.649  1.00  0.00     0.071 H 
BRANCH  69  72
HETATM   72  C14 O6K A 502      13.436   4.375  18.980  1.00 59.70    -0.041 A 
HETATM   73  C15 O6K A 502      13.727   5.743  18.875  1.00 63.38    -0.075 A 
HETATM   74  C23 O6K A 502      15.044   6.206  18.953  1.00 58.15    -0.082 A 
ATOM     75  H15 O6K A 502      12.905   6.464  18.729  1.00  0.00     0.084 H 
HETATM   76  C25 O6K A 502      16.085   5.295  19.138  1.00 61.49    -0.083 A 
ATOM     77  H23 O6K A 502      15.259   7.285  18.869  1.00  0.00     0.083 H 
HETATM   78  C26 O6K A 502      15.802   3.927  19.244  1.00 61.74    -0.082 A 
ATOM     79  H25 O6K A 502      17.127   5.651  19.201  1.00  0.00     0.083 H 
HETATM   80  C28 O6K A 502      14.483   3.472  19.164  1.00 55.48    -0.075 A 
ATOM     81  H26 O6K A 502      16.624   3.206  19.391  1.00  0.00     0.083 H 
ATOM     82  H28 O6K A 502      14.269   2.393  19.247  1.00  0.00     0.084 H 
ENDBRANCH  69  72
ENDBRANCH  66  69
ENDBRANCH  63  65
BRANCH  63  83
HETATM   83  O40 O6K A 502      12.249   0.168  18.706  1.00 40.57    -0.384 OA
ATOM     84  H40 O6K A 502      11.516  -0.072  18.152  1.00  0.00     0.210 HD
ENDBRANCH  63  83
ENDBRANCH  46  63
ENDBRANCH   3  46
TORSDOF 17
