REMARK  17 active torsions:
REMARK  status: ('A' for Active; 'I' for Inactive)
REMARK       I    between atoms: C36_1  and  N38_3 
REMARK    1  A    between atoms: C36_1  and  C20_5 
REMARK    2  A    between atoms: N38_3  and  C40_46 
REMARK    3  A    between atoms: C20_5  and  N15_7 
REMARK    4  A    between atoms: C20_5  and  C22_35 
REMARK       I    between atoms: N23_17  and  C24_18 
REMARK    5  A    between atoms: C24_18  and  O25_21 
REMARK    6  A    between atoms: O25_21  and  C27_22 
REMARK    7  A    between atoms: C27_22  and  C31_23 
REMARK    8  A    between atoms: C27_22  and  C33_27 
REMARK    9  A    between atoms: C27_22  and  C32_31 
REMARK   10  A    between atoms: C22_35  and  C29_38 
REMARK   11  A    between atoms: C40_46  and  C42_48 
REMARK   12  A    between atoms: C40_46  and  C57_63 
REMARK   13  A    between atoms: C42_48  and  C45_51 
REMARK   14  A    between atoms: C57_63  and  C35_65 
REMARK   15  A    between atoms: C57_63  and  O40_83 
REMARK       I    between atoms: C35_65  and  N36_66 
REMARK   16  A    between atoms: N36_66  and  C13_69 
REMARK   17  A    between atoms: C13_69  and  C14_72 
ROOT
HETATM    1  C36 O6K A 502       9.803  -0.454  21.000  1.00 40.96     0.241 C 
HETATM    2  O37 O6K A 502       9.430  -1.615  21.173  1.00 39.67    -0.271 OA
HETATM    3  N38 O6K A 502       9.786   0.472  21.973  1.00 36.33    -0.352 N 
ATOM      4  H38 O6K A 502      10.155   1.401  21.769  1.00  0.00     0.163 HD
ENDROOT
BRANCH   1   5
HETATM    5  C20 O6K A 502      10.296  -0.013  19.647  1.00 36.49     0.096 C 
ATOM      6  H20 O6K A 502       9.642   0.813  19.282  1.00  0.00     0.088 H 
BRANCH   5   7
HETATM    7  N15 O6K A 502      11.639   0.522  19.876  1.00 40.73    -0.309 N 
HETATM    8  C16 O6K A 502      12.513  -0.014  20.762  1.00 45.88    -0.016 A 
HETATM    9  C17 O6K A 502      13.768   0.534  21.006  1.00 41.48    -0.066 A 
ATOM     10  H16 O6K A 502      12.217  -0.923  21.313  1.00  0.00     0.111 H 
HETATM   11  C18 O6K A 502      14.180   1.661  20.325  1.00 44.13    -0.050 A 
ATOM     12  H17 O6K A 502      14.437   0.065  21.747  1.00  0.00     0.085 H 
HETATM   13  C19 O6K A 502      13.319   2.273  19.394  1.00 40.01     0.105 A 
ATOM     14  H18 O6K A 502      15.183   2.082  20.510  1.00  0.00     0.087 H 
HETATM   15  C21 O6K A 502      11.984   1.693  19.173  1.00 42.88     0.275 A 
HETATM   16  N23 O6K A 502      13.589   3.398  18.690  1.00 44.38    -0.298 N 
HETATM   17  O22 O6K A 502      11.160   2.228  18.372  1.00 40.80    -0.265 OA
HETATM   18  C24 O6K A 502      14.646   4.205  18.824  1.00 48.13     0.366 C 
ATOM     19  H23 O6K A 502      12.907   3.660  17.978  1.00  0.00     0.171 HD
HETATM   20  O26 O6K A 502      15.619   3.987  19.529  1.00 55.82    -0.238 OA
BRANCH  18  21
HETATM   21  O25 O6K A 502      14.581   5.417  18.029  1.00 49.37    -0.294 OA
BRANCH  21  22
HETATM   22  C27 O6K A 502      15.692   6.044  17.361  1.00 55.84     0.061 C 
BRANCH  22  23
HETATM   23  C31 O6K A 502      16.464   4.953  16.599  1.00 51.10    -0.048 C 
ATOM     24 3H31 O6K A 502      16.776   4.107  17.255  1.00  0.00     0.031 H 
ATOM     25 2H31 O6K A 502      15.815   4.371  15.904  1.00  0.00     0.031 H 
ATOM     26 1H31 O6K A 502      17.324   5.438  16.082  1.00  0.00     0.031 H 
ENDBRANCH  22  23
BRANCH  22  27
HETATM   27  C33 O6K A 502      16.611   6.747  18.370  1.00 59.65    -0.048 C 
ATOM     28 3H33 O6K A 502      16.049   7.472  19.004  1.00  0.00     0.031 H 
ATOM     29 2H33 O6K A 502      16.952   6.051  19.172  1.00  0.00     0.031 H 
ATOM     30 1H33 O6K A 502      17.471   7.232  17.853  1.00  0.00     0.031 H 
ENDBRANCH  22  27
BRANCH  22  31
HETATM   31  C32 O6K A 502      15.153   7.115  16.401  1.00 50.94    -0.048 C 
ATOM     32 3H32 O6K A 502      14.402   6.706  15.686  1.00  0.00     0.031 H 
ATOM     33 2H32 O6K A 502      14.493   7.853  16.914  1.00  0.00     0.031 H 
ATOM     34 1H32 O6K A 502      16.013   7.600  15.884  1.00  0.00     0.031 H 
ENDBRANCH  22  31
ENDBRANCH  21  22
ENDBRANCH  18  21
ENDBRANCH   5   7
BRANCH   5  35
HETATM   35  C22 O6K A 502      10.246  -1.163  18.631  1.00 35.21    -0.034 C 
ATOM     36 2H22 O6K A 502      11.221  -1.289  18.104  1.00  0.00     0.037 H 
ATOM     37 1H22 O6K A 502      10.197  -2.156  19.136  1.00  0.00     0.037 H 
BRANCH  35  38
HETATM   38  C29 O6K A 502       9.092  -0.973  17.645  1.00 36.38    -0.052 A 
HETATM   39  C34 O6K A 502       9.360  -0.287  16.309  1.00 36.80    -0.061 A 
HETATM   40  C30 O6K A 502       9.230  -1.804  16.359  1.00 34.06    -0.061 A 
ATOM     41 2H34 O6K A 502       8.860   0.524  15.730  1.00  0.00     0.033 H 
ATOM     42 1H34 O6K A 502      10.134   0.422  15.933  1.00  0.00     0.033 H 
ATOM     43 2H30 O6K A 502       9.865  -2.662  16.037  1.00  0.00     0.033 H 
ATOM     44 1H30 O6K A 502       8.600  -2.561  15.836  1.00  0.00     0.033 H 
ATOM     45  H29 O6K A 502       8.069  -0.867  18.075  1.00  0.00     0.040 H 
ENDBRANCH  35  38
ENDBRANCH   5  35
ENDBRANCH   1   5
BRANCH   3  46
HETATM   46  C40 O6K A 502       9.274   0.212  23.283  1.00 37.49     0.046 C 
ATOM     47  H40 O6K A 502       8.382  -0.448  23.174  1.00  0.00     0.077 H 
BRANCH  46  48
HETATM   48  C42 O6K A 502      10.288  -0.512  24.224  1.00 32.82    -0.032 C 
ATOM     49 2H42 O6K A 502      11.193  -0.875  23.683  1.00  0.00     0.037 H 
ATOM     50 1H42 O6K A 502      10.801   0.189  24.923  1.00  0.00     0.037 H 
BRANCH  48  51
HETATM   51  C45 O6K A 502       9.562  -1.612  24.938  1.00 30.60     0.027 C 
HETATM   52  C54 O6K A 502       8.743  -2.524  24.017  1.00 33.95    -0.039 C 
HETATM   53  C51 O6K A 502       7.659  -3.109  24.914  1.00 39.28    -0.004 C 
ATOM     54 2H54 O6K A 502       8.351  -2.014  23.106  1.00  0.00     0.036 H 
ATOM     55 1H54 O6K A 502       9.350  -3.290  23.481  1.00  0.00     0.036 H 
HETATM   56  N49 O6K A 502       7.487  -2.047  25.912  1.00 37.90    -0.361 N 
ATOM     57 2H51 O6K A 502       6.726  -3.419  24.388  1.00  0.00     0.064 H 
ATOM     58 1H51 O6K A 502       7.884  -4.118  25.331  1.00  0.00     0.064 H 
HETATM   59  C47 O6K A 502       8.536  -1.211  25.976  1.00 34.72     0.221 C 
ATOM     60  H49 O6K A 502       6.656  -1.954  26.496  1.00  0.00     0.162 HD
HETATM   61  O48 O6K A 502       8.712  -0.285  26.763  1.00 30.70    -0.273 OA
ATOM     62  H45 O6K A 502      10.326  -2.245  25.447  1.00  0.00     0.054 H 
ENDBRANCH  48  51
ENDBRANCH  46  48
BRANCH  46  63
HETATM   63  C57 O6K A 502       8.778   1.604  23.659  1.00 43.89     0.131 C 
ATOM     64  H57 O6K A 502       8.255   2.064  22.788  1.00  0.00     0.101 H 
BRANCH  63  65
HETATM   65  C35 O6K A 502       9.923   2.446  24.053  1.00 48.12     0.248 C 
HETATM   66  N36 O6K A 502      10.811   2.635  23.034  1.00 55.97    -0.355 N 
ATOM     67  H36 O6K A 502      10.583   2.218  22.132  1.00  0.00     0.162 HD
HETATM   68  O41 O6K A 502       9.958   2.816  25.212  1.00 36.04    -0.271 OA
BRANCH  66  69
HETATM   69  C13 O6K A 502      12.061   3.388  23.127  1.00 57.51     0.019 C 
ATOM     70 2H13 O6K A 502      12.223   3.788  24.155  1.00  0.00     0.071 H 
ATOM     71 1H13 O6K A 502      12.950   2.718  23.063  1.00  0.00     0.071 H 
BRANCH  69  72
HETATM   72  C14 O6K A 502      12.116   4.493  22.080  1.00 59.70    -0.041 A 
HETATM   73  C15 O6K A 502      11.078   4.609  21.144  1.00 63.38    -0.075 A 
HETATM   74  C23 O6K A 502      11.090   5.620  20.178  1.00 58.15    -0.082 A 
ATOM     75  H15 O6K A 502      10.240   3.892  21.170  1.00  0.00     0.084 H 
HETATM   76  C25 O6K A 502      12.149   6.527  20.142  1.00 61.49    -0.083 A 
ATOM     77  H23 O6K A 502      10.267   5.700  19.449  1.00  0.00     0.083 H 
HETATM   78  C26 O6K A 502      13.189   6.418  21.074  1.00 61.74    -0.082 A 
ATOM     79  H25 O6K A 502      12.167   7.327  19.383  1.00  0.00     0.083 H 
HETATM   80  C28 O6K A 502      13.171   5.405  22.036  1.00 55.48    -0.075 A 
ATOM     81  H26 O6K A 502      14.026   7.136  21.048  1.00  0.00     0.083 H 
ATOM     82  H28 O6K A 502      13.995   5.326  22.765  1.00  0.00     0.084 H 
ENDBRANCH  69  72
ENDBRANCH  66  69
ENDBRANCH  63  65
BRANCH  63  83
HETATM   83  O40 O6K A 502       7.909   1.668  24.852  1.00 40.57    -0.384 OA
ATOM     84  H40 O6K A 502       7.047   1.505  24.487  1.00  0.00     0.210 HD
ENDBRANCH  63  83
ENDBRANCH  46  63
ENDBRANCH   3  46
TORSDOF 17
