REMARK  17 active torsions:
REMARK  status: ('A' for Active; 'I' for Inactive)
REMARK       I    between atoms: C36_1  and  N38_3 
REMARK    1  A    between atoms: C36_1  and  C20_5 
REMARK    2  A    between atoms: N38_3  and  C40_46 
REMARK    3  A    between atoms: C20_5  and  N15_7 
REMARK    4  A    between atoms: C20_5  and  C22_35 
REMARK       I    between atoms: N23_17  and  C24_18 
REMARK    5  A    between atoms: C24_18  and  O25_21 
REMARK    6  A    between atoms: O25_21  and  C27_22 
REMARK    7  A    between atoms: C27_22  and  C31_23 
REMARK    8  A    between atoms: C27_22  and  C33_27 
REMARK    9  A    between atoms: C27_22  and  C32_31 
REMARK   10  A    between atoms: C22_35  and  C29_38 
REMARK   11  A    between atoms: C40_46  and  C42_48 
REMARK   12  A    between atoms: C40_46  and  C57_63 
REMARK   13  A    between atoms: C42_48  and  C45_51 
REMARK   14  A    between atoms: C57_63  and  C35_65 
REMARK   15  A    between atoms: C57_63  and  O40_83 
REMARK       I    between atoms: C35_65  and  N36_66 
REMARK   16  A    between atoms: N36_66  and  C13_69 
REMARK   17  A    between atoms: C13_69  and  C14_72 
ROOT
HETATM    1  C36 O6K A 502      10.251   1.441  21.131  1.00 40.96     0.241 C 
HETATM    2  O37 O6K A 502      10.119   2.555  21.639  1.00 39.67    -0.271 OA
HETATM    3  N38 O6K A 502       9.952   0.302  21.778  1.00 36.33    -0.352 N 
ATOM      4  H38 O6K A 502      10.042  -0.582  21.276  1.00  0.00     0.163 HD
ENDROOT
BRANCH   1   5
HETATM    5  C20 O6K A 502      10.777   1.309  19.726  1.00 36.49     0.096 C 
ATOM      6  H20 O6K A 502      10.224   2.022  19.071  1.00  0.00     0.088 H 
BRANCH   5   7
HETATM    7  N15 O6K A 502      12.178   1.728  19.792  1.00 40.73    -0.309 N 
HETATM    8  C16 O6K A 502      13.122   1.059  20.496  1.00 45.88    -0.016 A 
HETATM    9  C17 O6K A 502      14.440   1.495  20.591  1.00 41.48    -0.066 A 
ATOM     10  H16 O6K A 502      12.834   0.130  21.016  1.00  0.00     0.111 H 
HETATM   11  C18 O6K A 502      14.841   2.646  19.943  1.00 44.13    -0.050 A 
ATOM     12  H17 O6K A 502      15.168   0.918  21.187  1.00  0.00     0.085 H 
HETATM   13  C19 O6K A 502      13.909   3.394  19.199  1.00 40.01     0.105 A 
ATOM     14  H18 O6K A 502      15.890   2.979  20.008  1.00  0.00     0.087 H 
HETATM   15  C21 O6K A 502      12.514   2.929  19.135  1.00 42.88     0.275 A 
HETATM   16  N23 O6K A 502      14.166   4.554  18.550  1.00 44.38    -0.298 N 
HETATM   17  O22 O6K A 502      11.630   3.588  18.508  1.00 40.80    -0.265 OA
HETATM   18  C24 O6K A 502      15.294   5.271  18.585  1.00 48.13     0.366 C 
ATOM     19  H23 O6K A 502      13.413   4.923  17.968  1.00  0.00     0.171 HD
HETATM   20  O26 O6K A 502      16.336   4.926  19.119  1.00 55.82    -0.238 OA
BRANCH  18  21
HETATM   21  O25 O6K A 502      15.215   6.549  17.902  1.00 49.37    -0.294 OA
BRANCH  21  22
HETATM   22  C27 O6K A 502      15.934   6.908  16.707  1.00 55.84     0.061 C 
BRANCH  22  23
HETATM   23  C31 O6K A 502      16.075   5.644  15.841  1.00 51.10    -0.048 C 
ATOM     24 3H31 O6K A 502      16.546   4.795  16.390  1.00  0.00     0.031 H 
ATOM     25 2H31 O6K A 502      15.095   5.157  15.626  1.00  0.00     0.031 H 
ATOM     26 1H31 O6K A 502      16.632   5.922  14.916  1.00  0.00     0.031 H 
ENDBRANCH  22  23
BRANCH  22  27
HETATM   27  C33 O6K A 502      17.316   7.480  17.051  1.00 59.65    -0.048 C 
ATOM     28 3H33 O6K A 502      17.242   8.337  17.761  1.00  0.00     0.031 H 
ATOM     29 2H33 O6K A 502      17.903   6.781  17.691  1.00  0.00     0.031 H 
ATOM     30 1H33 O6K A 502      17.873   7.758  16.126  1.00  0.00     0.031 H 
ENDBRANCH  22  27
BRANCH  22  31
HETATM   31  C32 O6K A 502      15.150   8.002  15.967  1.00 50.94    -0.048 C 
ATOM     32 3H32 O6K A 502      14.097   7.703  15.757  1.00  0.00     0.031 H 
ATOM     33 2H32 O6K A 502      14.934   8.883  16.615  1.00  0.00     0.031 H 
ATOM     34 1H32 O6K A 502      15.707   8.280  15.042  1.00  0.00     0.031 H 
ENDBRANCH  22  31
ENDBRANCH  21  22
ENDBRANCH  18  21
ENDBRANCH   5   7
BRANCH   5  35
HETATM   35  C22 O6K A 502      10.575  -0.112  19.183  1.00 35.21    -0.034 C 
ATOM     36 2H22 O6K A 502      11.319  -0.825  19.609  1.00  0.00     0.037 H 
ATOM     37 1H22 O6K A 502       9.645  -0.577  19.585  1.00  0.00     0.037 H 
BRANCH  35  38
HETATM   38  C29 O6K A 502      10.595  -0.123  17.653  1.00 36.38    -0.052 A 
HETATM   39  C34 O6K A 502      10.810  -1.445  16.921  1.00 36.80    -0.061 A 
HETATM   40  C30 O6K A 502       9.405  -0.864  17.021  1.00 34.06    -0.061 A 
ATOM     41 2H34 O6K A 502      11.462  -1.779  16.081  1.00  0.00     0.033 H 
ATOM     42 1H34 O6K A 502      11.275  -2.423  17.188  1.00  0.00     0.033 H 
ATOM     43 2H30 O6K A 502       8.421  -1.236  17.389  1.00  0.00     0.033 H 
ATOM     44 1H30 O6K A 502       8.607  -0.597  16.290  1.00  0.00     0.033 H 
ATOM     45  H29 O6K A 502      10.946   0.804  17.142  1.00  0.00     0.040 H 
ENDBRANCH  35  38
ENDBRANCH   5  35
ENDBRANCH   1   5
BRANCH   3  46
HETATM   46  C40 O6K A 502       9.514   0.275  23.139  1.00 37.49     0.046 C 
ATOM     47  H40 O6K A 502      10.032   1.102  23.679  1.00  0.00     0.077 H 
BRANCH  46  48
HETATM   48  C42 O6K A 502       7.976   0.486  23.310  1.00 32.82    -0.032 C 
ATOM     49 2H42 O6K A 502       7.495   0.903  22.395  1.00  0.00     0.037 H 
ATOM     50 1H42 O6K A 502       7.412  -0.475  23.352  1.00  0.00     0.037 H 
BRANCH  48  51
HETATM   51  C45 O6K A 502       7.753   1.341  24.521  1.00 30.60     0.027 C 
HETATM   52  C54 O6K A 502       8.917   2.285  24.846  1.00 33.95    -0.039 C 
HETATM   53  C51 O6K A 502       8.789   2.558  26.340  1.00 39.28    -0.004 C 
ATOM     54 2H54 O6K A 502       9.916   1.895  24.540  1.00  0.00     0.036 H 
ATOM     55 1H54 O6K A 502       8.943   3.206  24.217  1.00  0.00     0.036 H 
HETATM   56  N49 O6K A 502       8.153   1.327  26.820  1.00 37.90    -0.361 N 
ATOM     57 2H51 O6K A 502       9.740   2.830  26.854  1.00  0.00     0.064 H 
ATOM     58 1H51 O6K A 502       8.254   3.500  26.604  1.00  0.00     0.064 H 
HETATM   59  C47 O6K A 502       7.541   0.636  25.843  1.00 34.72     0.221 C 
ATOM     60  H49 O6K A 502       8.173   1.026  27.794  1.00  0.00     0.162 HD
HETATM   61  O48 O6K A 502       6.863  -0.381  25.954  1.00 30.70    -0.273 OA
ATOM     62  H45 O6K A 502       6.853   1.971  24.327  1.00  0.00     0.054 H 
ENDBRANCH  48  51
ENDBRANCH  46  48
BRANCH  46  63
HETATM   63  C57 O6K A 502      10.137  -1.039  23.596  1.00 43.89     0.131 C 
ATOM     64  H57 O6K A 502      11.099  -1.207  23.057  1.00  0.00     0.101 H 
BRANCH  63  65
HETATM   65  C35 O6K A 502       9.208  -2.150  23.313  1.00 48.12     0.248 C 
HETATM   66  N36 O6K A 502       8.540  -2.571  24.426  1.00 55.97    -0.355 N 
ATOM     67  H36 O6K A 502       8.722  -2.073  25.298  1.00  0.00     0.162 HD
HETATM   68  O41 O6K A 502       9.187  -2.570  22.171  1.00 36.04    -0.271 OA
BRANCH  66  69
HETATM   69  C13 O6K A 502       7.584  -3.676  24.474  1.00 57.51     0.019 C 
ATOM     70 2H13 O6K A 502       6.680  -3.411  25.070  1.00  0.00     0.071 H 
ATOM     71 1H13 O6K A 502       7.095  -3.839  23.485  1.00  0.00     0.071 H 
BRANCH  69  72
HETATM   72  C14 O6K A 502       8.242  -4.950  24.991  1.00 59.70    -0.041 A 
HETATM   73  C15 O6K A 502       7.608  -6.184  24.790  1.00 63.38    -0.075 A 
HETATM   74  C23 O6K A 502       8.189  -7.374  25.239  1.00 58.15    -0.082 A 
ATOM     75  H15 O6K A 502       6.636  -6.217  24.270  1.00  0.00     0.084 H 
HETATM   76  C25 O6K A 502       9.419  -7.333  25.898  1.00 61.49    -0.083 A 
ATOM     77  H23 O6K A 502       7.679  -8.338  25.074  1.00  0.00     0.083 H 
HETATM   78  C26 O6K A 502      10.059  -6.104  26.101  1.00 61.74    -0.082 A 
ATOM     79  H25 O6K A 502       9.885  -8.266  26.258  1.00  0.00     0.083 H 
HETATM   80  C28 O6K A 502       9.471  -4.920  25.650  1.00 55.48    -0.075 A 
ATOM     81  H26 O6K A 502      11.032  -6.071  26.619  1.00  0.00     0.083 H 
ATOM     82  H28 O6K A 502       9.981  -3.956  25.816  1.00  0.00     0.084 H 
ENDBRANCH  69  72
ENDBRANCH  66  69
ENDBRANCH  63  65
BRANCH  63  83
HETATM   83  O40 O6K A 502      10.353  -1.167  25.052  1.00 40.57    -0.384 OA
ATOM     84  H40 O6K A 502      11.248  -1.483  25.099  1.00  0.00     0.210 HD
ENDBRANCH  63  83
ENDBRANCH  46  63
ENDBRANCH   3  46
TORSDOF 17
