REMARK  17 active torsions:
REMARK  status: ('A' for Active; 'I' for Inactive)
REMARK       I    between atoms: C36_1  and  N38_3 
REMARK    1  A    between atoms: C36_1  and  C20_5 
REMARK    2  A    between atoms: N38_3  and  C40_46 
REMARK    3  A    between atoms: C20_5  and  N15_7 
REMARK    4  A    between atoms: C20_5  and  C22_35 
REMARK       I    between atoms: N23_17  and  C24_18 
REMARK    5  A    between atoms: C24_18  and  O25_21 
REMARK    6  A    between atoms: O25_21  and  C27_22 
REMARK    7  A    between atoms: C27_22  and  C31_23 
REMARK    8  A    between atoms: C27_22  and  C33_27 
REMARK    9  A    between atoms: C27_22  and  C32_31 
REMARK   10  A    between atoms: C22_35  and  C29_38 
REMARK   11  A    between atoms: C40_46  and  C42_48 
REMARK   12  A    between atoms: C40_46  and  C57_63 
REMARK   13  A    between atoms: C42_48  and  C45_51 
REMARK   14  A    between atoms: C57_63  and  C35_65 
REMARK   15  A    between atoms: C57_63  and  O40_83 
REMARK       I    between atoms: C35_65  and  N36_66 
REMARK   16  A    between atoms: N36_66  and  C13_69 
REMARK   17  A    between atoms: C13_69  and  C14_72 
ROOT
HETATM    1  C36 O6K A 502      10.261  -2.100  21.501  1.00 40.96     0.241 C 
HETATM    2  O37 O6K A 502       9.076  -2.425  21.572  1.00 39.67    -0.271 OA
HETATM    3  N38 O6K A 502      11.255  -2.840  22.020  1.00 36.33    -0.352 N 
ATOM      4  H38 O6K A 502      12.218  -2.530  21.881  1.00  0.00     0.163 HD
ENDROOT
BRANCH   1   5
HETATM    5  C20 O6K A 502      10.652  -0.816  20.819  1.00 36.49     0.096 C 
ATOM      6  H20 O6K A 502      11.697  -0.561  21.114  1.00  0.00     0.088 H 
BRANCH   5   7
HETATM    7  N15 O6K A 502      10.631  -1.111  19.386  1.00 40.73    -0.309 N 
HETATM    8  C16 O6K A 502       9.551  -0.893  18.597  1.00 45.88    -0.016 A 
HETATM    9  C17 O6K A 502       9.528  -1.225  17.246  1.00 41.48    -0.066 A 
ATOM     10  H16 O6K A 502       8.653  -0.434  19.044  1.00  0.00     0.111 H 
HETATM   11  C18 O6K A 502      10.636  -1.788  16.647  1.00 44.13    -0.050 A 
ATOM     12  H17 O6K A 502       8.619  -1.037  16.651  1.00  0.00     0.085 H 
HETATM   13  C19 O6K A 502      11.790  -2.049  17.411  1.00 40.01     0.105 A 
ATOM     14  H18 O6K A 502      10.618  -2.033  15.572  1.00  0.00     0.087 H 
HETATM   15  C21 O6K A 502      11.783  -1.716  18.845  1.00 42.88     0.275 A 
HETATM   16  N23 O6K A 502      12.925  -2.628  16.954  1.00 44.38    -0.298 N 
HETATM   17  O22 O6K A 502      12.785  -1.964  19.582  1.00 40.80    -0.265 OA
HETATM   18  C24 O6K A 502      13.131  -3.170  15.749  1.00 48.13     0.366 C 
ATOM     19  H23 O6K A 502      13.712  -2.655  17.602  1.00  0.00     0.171 HD
HETATM   20  O26 O6K A 502      12.355  -3.119  14.807  1.00 55.82    -0.238 OA
BRANCH  18  21
HETATM   21  O25 O6K A 502      14.405  -3.849  15.605  1.00 49.37    -0.294 OA
BRANCH  21  22
HETATM   22  C27 O6K A 502      15.588  -3.295  15.001  1.00 55.84     0.061 C 
BRANCH  22  23
HETATM   23  C31 O6K A 502      16.609  -3.023  16.120  1.00 51.10    -0.048 C 
ATOM     24 3H31 O6K A 502      16.198  -2.380  16.933  1.00  0.00     0.031 H 
ATOM     25 2H31 O6K A 502      16.822  -3.926  16.738  1.00  0.00     0.031 H 
ATOM     26 1H31 O6K A 502      17.526  -2.594  15.652  1.00  0.00     0.031 H 
ENDBRANCH  22  23
BRANCH  22  27
HETATM   27  C33 O6K A 502      15.262  -2.000  14.246  1.00 59.65    -0.048 C 
ATOM     28 3H33 O6K A 502      14.450  -2.153  13.497  1.00  0.00     0.031 H 
ATOM     29 2H33 O6K A 502      14.749  -1.259  14.902  1.00  0.00     0.031 H 
ATOM     30 1H33 O6K A 502      16.179  -1.571  13.778  1.00  0.00     0.031 H 
ENDBRANCH  22  27
BRANCH  22  31
HETATM   31  C32 O6K A 502      16.141  -4.301  13.979  1.00 50.94    -0.048 C 
ATOM     32 3H32 O6K A 502      16.322  -5.306  14.426  1.00  0.00     0.031 H 
ATOM     33 2H32 O6K A 502      15.379  -4.603  13.223  1.00  0.00     0.031 H 
ATOM     34 1H32 O6K A 502      17.058  -3.872  13.511  1.00  0.00     0.031 H 
ENDBRANCH  22  31
ENDBRANCH  21  22
ENDBRANCH  18  21
ENDBRANCH   5   7
BRANCH   5  35
HETATM   35  C22 O6K A 502       9.730   0.341  21.232  1.00 35.21    -0.034 C 
ATOM     36 2H22 O6K A 502       9.929   1.259  20.632  1.00  0.00     0.037 H 
ATOM     37 1H22 O6K A 502       8.676   0.159  20.919  1.00  0.00     0.037 H 
BRANCH  35  38
HETATM   38  C29 O6K A 502       9.833   0.615  22.734  1.00 36.38    -0.052 A 
HETATM   39  C34 O6K A 502      11.104   1.253  23.288  1.00 36.80    -0.061 A 
HETATM   40  C30 O6K A 502       9.859   2.110  23.093  1.00 34.06    -0.061 A 
ATOM     41 2H34 O6K A 502      11.780   1.036  24.148  1.00  0.00     0.033 H 
ATOM     42 1H34 O6K A 502      12.163   1.318  22.944  1.00  0.00     0.033 H 
ATOM     43 2H30 O6K A 502       9.629   3.057  22.551  1.00  0.00     0.033 H 
ATOM     44 1H30 O6K A 502       9.248   2.776  23.746  1.00  0.00     0.033 H 
ATOM     45  H29 O6K A 502       9.265  -0.062  23.415  1.00  0.00     0.040 H 
ENDBRANCH  35  38
ENDBRANCH   5  35
ENDBRANCH   1   5
BRANCH   3  46
HETATM   46  C40 O6K A 502      11.023  -4.042  22.758  1.00 37.49     0.046 C 
ATOM     47  H40 O6K A 502       9.936  -4.280  22.686  1.00  0.00     0.077 H 
BRANCH  46  48
HETATM   48  C42 O6K A 502      11.816  -5.276  22.218  1.00 32.82    -0.032 C 
ATOM     49 2H42 O6K A 502      12.879  -5.035  21.984  1.00  0.00     0.037 H 
ATOM     50 1H42 O6K A 502      12.005  -6.043  23.004  1.00  0.00     0.037 H 
BRANCH  48  51
HETATM   51  C45 O6K A 502      11.075  -5.828  21.038  1.00 30.60     0.027 C 
HETATM   52  C54 O6K A 502      10.637  -7.289  21.201  1.00 33.95    -0.039 C 
HETATM   53  C51 O6K A 502      10.501  -7.814  19.776  1.00 39.28    -0.004 C 
ATOM     54 2H54 O6K A 502      11.315  -7.896  21.845  1.00  0.00     0.036 H 
ATOM     55 1H54 O6K A 502       9.721  -7.421  21.822  1.00  0.00     0.036 H 
HETATM   56  N49 O6K A 502      11.480  -6.991  19.056  1.00 37.90    -0.361 N 
ATOM     57 2H51 O6K A 502      10.634  -8.915  19.663  1.00  0.00     0.064 H 
ATOM     58 1H51 O6K A 502       9.467  -7.791  19.360  1.00  0.00     0.064 H 
HETATM   59  C47 O6K A 502      11.803  -5.864  19.712  1.00 34.72     0.221 C 
ATOM     60  H49 O6K A 502      11.874  -7.249  18.151  1.00  0.00     0.162 HD
HETATM   61  O48 O6K A 502      12.527  -4.951  19.325  1.00 30.70    -0.273 OA
ATOM     62  H45 O6K A 502      10.155  -5.214  20.901  1.00  0.00     0.054 H 
ENDBRANCH  48  51
ENDBRANCH  46  48
BRANCH  46  63
HETATM   63  C57 O6K A 502      11.297  -3.547  24.173  1.00 43.89     0.131 C 
ATOM     64  H57 O6K A 502      12.045  -4.211  24.665  1.00  0.00     0.101 H 
BRANCH  63  65
HETATM   65  C35 O6K A 502      10.042  -3.550  24.949  1.00 48.12     0.248 C 
HETATM   66  N36 O6K A 502       9.318  -2.406  24.779  1.00 55.97    -0.355 N 
ATOM     67  H36 O6K A 502       9.690  -1.708  24.135  1.00  0.00     0.162 HD
HETATM   68  O41 O6K A 502       9.837  -4.519  25.656  1.00 36.04    -0.271 OA
BRANCH  66  69
HETATM   69  C13 O6K A 502       8.052  -2.097  25.443  1.00 57.51     0.019 C 
ATOM     70 2H13 O6K A 502       7.192  -2.595  24.938  1.00  0.00     0.071 H 
ATOM     71 1H13 O6K A 502       7.978  -2.596  26.437  1.00  0.00     0.071 H 
BRANCH  69  72
HETATM   72  C14 O6K A 502       7.842  -0.592  25.554  1.00 59.70    -0.041 A 
HETATM   73  C15 O6K A 502       6.846   0.024  24.783  1.00 63.38    -0.075 A 
HETATM   74  C23 O6K A 502       6.617   1.400  24.870  1.00 58.15    -0.082 A 
ATOM     75  H15 O6K A 502       6.234  -0.586  24.098  1.00  0.00     0.084 H 
HETATM   76  C25 O6K A 502       7.391   2.175  25.735  1.00 61.49    -0.083 A 
ATOM     77  H23 O6K A 502       5.829   1.871  24.258  1.00  0.00     0.083 H 
HETATM   78  C26 O6K A 502       8.388   1.566  26.508  1.00 61.74    -0.082 A 
ATOM     79  H25 O6K A 502       7.218   3.262  25.810  1.00  0.00     0.083 H 
HETATM   80  C28 O6K A 502       8.611   0.190  26.416  1.00 55.48    -0.075 A 
ATOM     81  H26 O6K A 502       9.000   2.176  27.193  1.00  0.00     0.083 H 
ATOM     82  H28 O6K A 502       9.399  -0.280  27.028  1.00  0.00     0.084 H 
ENDBRANCH  69  72
ENDBRANCH  66  69
ENDBRANCH  63  65
BRANCH  63  83
HETATM   83  O40 O6K A 502      11.734  -2.139  24.280  1.00 40.57    -0.384 OA
ATOM     84  H40 O6K A 502      11.340  -1.864  25.099  1.00  0.00     0.210 HD
ENDBRANCH  63  83
ENDBRANCH  46  63
ENDBRANCH   3  46
TORSDOF 17
