REMARK VINA RESULT:     -9.68      2.984      5.503
REMARK  14 active torsions:
REMARK  status: ('A' for Active; 'I' for Inactive)
REMARK       I    between atoms: C24_2  and  N23_8 
REMARK    1  A    between atoms: C24_2  and  O25_3 
REMARK    2  A    between atoms: C27_4  and  O25_3 
REMARK    3  A    between atoms: C20_17  and  N15_16 
REMARK    4  A    between atoms: C20_17  and  C36_22 
REMARK    5  A    between atoms: C20_17  and  C22_18 
REMARK    6  A    between atoms: C22_18  and  C29_19 
REMARK       I    between atoms: C36_22  and  N38_24 
REMARK    7  A    between atoms: C40_26  and  N38_24 
REMARK    8  A    between atoms: C40_26  and  C42_27 
REMARK    9  A    between atoms: C40_26  and  C57_35 
REMARK   10  A    between atoms: C42_27  and  C45_28 
REMARK   11  A    between atoms: C35_38  and  C57_35 
REMARK   12  A    between atoms: C57_35  and  O40_36 
REMARK       I    between atoms: C35_38  and  N36_40 
REMARK   13  A    between atoms: C13_42  and  N36_40 
REMARK   14  A    between atoms: C13_42  and  C14_43 
ROOT
HETATM    1  C36 O6K A 502      10.239   1.405  21.171  1.00 40.96     0.241 C 
HETATM    2  O37 O6K A 502      10.119   2.530  21.657  1.00 39.67    -0.271 OA
HETATM    3  N38 O6K A 502       9.926   0.282  21.839  1.00 36.33    -0.352 N 
ATOM      4  H38 O6K A 502      10.007  -0.613  21.355  1.00  0.00     0.163 HD
ENDROOT
BRANCH   3   5
HETATM    5  C40 O6K A 502       9.482   0.287  23.198  1.00 37.49     0.123 C 
BRANCH   5   6
HETATM    6  C42 O6K A 502       7.946   0.514  23.359  1.00 32.82     0.042 C 
BRANCH   6   7
HETATM    7  C45 O6K A 502       7.722   1.357  24.578  1.00 30.60     0.081 C 
HETATM    8  C54 O6K A 502       8.878   2.311  24.902  1.00 33.95     0.034 C 
HETATM    9  C51 O6K A 502       8.758   2.573  26.398  1.00 39.28     0.123 C 
HETATM   10  N49 O6K A 502       8.139   1.331  26.874  1.00 37.90    -0.361 N 
HETATM   11  C47 O6K A 502       7.527   0.641  25.897  1.00 34.72     0.221 C 
ATOM     12  H49 O6K A 502       8.169   1.024  27.846  1.00  0.00     0.162 HD
HETATM   13  O48 O6K A 502       6.861  -0.385  26.005  1.00 30.70    -0.273 OA
ENDBRANCH   6   7
ENDBRANCH   5   6
BRANCH   5  14
HETATM   14  C57 O6K A 502      10.093  -1.023  23.685  1.00 43.89     0.232 C 
BRANCH  14  15
HETATM   15  C35 O6K A 502       9.178  -2.138  23.376  1.00 48.12     0.248 C 
HETATM   16  N36 O6K A 502       8.508  -2.587  24.477  1.00 55.97    -0.355 N 
ATOM     17  H36 O6K A 502       8.680  -2.104  25.359  1.00  0.00     0.162 HD
HETATM   18  O41 O6K A 502       9.169  -2.537  22.226  1.00 36.04    -0.271 OA
BRANCH  16  19
HETATM   19  C13 O6K A 502       7.564  -3.704  24.498  1.00 57.51     0.161 C 
BRANCH  19  20
HETATM   20  C14 O6K A 502       8.229  -4.976  25.009  1.00 59.70    -0.041 A 
HETATM   21  C15 O6K A 502       7.566  -6.204  24.874  1.00 63.38     0.009 A 
HETATM   22  C23 O6K A 502       8.152  -7.392  25.320  1.00 58.15     0.001 A 
HETATM   23  C25 O6K A 502       9.417  -7.358  25.908  1.00 61.49     0.000 A 
HETATM   24  C26 O6K A 502      10.087  -6.135  26.045  1.00 61.74     0.001 A 
HETATM   25  C28 O6K A 502       9.494  -4.952  25.598  1.00 55.48     0.009 A 
ENDBRANCH  19  20
ENDBRANCH  16  19
ENDBRANCH  14  15
BRANCH  14  26
HETATM   26  O40 O6K A 502      10.258  -1.141  25.148  1.00 40.57    -0.384 OA
ATOM     27  H40 O6K A 502      10.159  -2.075  25.291  1.00  0.00     0.210 HD
ENDBRANCH  14  26
ENDBRANCH   5  14
ENDBRANCH   3   5
BRANCH   1  28
HETATM   28  C20 O6K A 502      10.769   1.240  19.771  1.00 36.49     0.184 C 
BRANCH  28  29
HETATM   29  N15 O6K A 502      12.164   1.679  19.826  1.00 40.73    -0.309 N 
HETATM   30  C16 O6K A 502      13.120   1.035  20.538  1.00 45.88     0.095 A 
HETATM   31  C17 O6K A 502      14.431   1.491  20.622  1.00 41.48     0.020 A 
HETATM   32  C18 O6K A 502      14.815   2.637  19.955  1.00 44.13     0.037 A 
HETATM   33  C19 O6K A 502      13.870   3.360  19.201  1.00 40.01     0.105 A 
HETATM   34  N23 O6K A 502      14.108   4.513  18.533  1.00 44.38    -0.298 N 
HETATM   35  C21 O6K A 502      12.481   2.874  19.150  1.00 42.88     0.275 A 
HETATM   36  C24 O6K A 502      15.226   5.246  18.553  1.00 48.13     0.366 C 
ATOM     37  H23 O6K A 502      13.349   4.862  17.948  1.00  0.00     0.171 HD
HETATM   38  O26 O6K A 502      16.274   4.925  19.090  1.00 55.82    -0.238 OA
HETATM   39  O22 O6K A 502      11.586   3.510  18.515  1.00 40.80    -0.265 OA
BRANCH  36  40
HETATM   40  O25 O6K A 502      15.127   6.511  17.850  1.00 49.37    -0.294 OA
BRANCH  40  41
HETATM   41  C27 O6K A 502      15.873   6.879  16.675  1.00 55.84     0.061 C 
HETATM   42  C31 O6K A 502      16.073   5.613  15.824  1.00 51.10     0.046 C 
HETATM   43  C33 O6K A 502      17.229   7.490  17.056  1.00 59.65     0.046 C 
HETATM   44  C32 O6K A 502      15.085   7.948  15.902  1.00 50.94     0.046 C 
ENDBRANCH  40  41
ENDBRANCH  36  40
ENDBRANCH  28  29
BRANCH  28  45
HETATM   45  C22 O6K A 502      10.587  -0.199  19.269  1.00 35.21     0.040 C 
BRANCH  45  46
HETATM   46  C29 O6K A 502       9.340  -0.321  18.391  1.00 36.38    -0.012 A 
HETATM   47  C34 O6K A 502       9.363   0.264  16.982  1.00 36.80     0.005 A 
HETATM   48  C30 O6K A 502       9.525  -1.239  17.172  1.00 34.06     0.005 A 
ENDBRANCH  45  46
ENDBRANCH  28  45
ENDBRANCH   1  28
TORSDOF 14
