REMARK  17 active torsions:
REMARK  status: ('A' for Active; 'I' for Inactive)
REMARK       I    between atoms: C36_1  and  N38_3 
REMARK    1  A    between atoms: C36_1  and  C20_5 
REMARK    2  A    between atoms: N38_3  and  C40_46 
REMARK    3  A    between atoms: C20_5  and  N15_7 
REMARK    4  A    between atoms: C20_5  and  C22_35 
REMARK       I    between atoms: N23_17  and  C24_18 
REMARK    5  A    between atoms: C24_18  and  O25_21 
REMARK    6  A    between atoms: O25_21  and  C27_22 
REMARK    7  A    between atoms: C27_22  and  C31_23 
REMARK    8  A    between atoms: C27_22  and  C33_27 
REMARK    9  A    between atoms: C27_22  and  C32_31 
REMARK   10  A    between atoms: C22_35  and  C29_38 
REMARK   11  A    between atoms: C40_46  and  C42_48 
REMARK   12  A    between atoms: C40_46  and  C57_63 
REMARK   13  A    between atoms: C42_48  and  C45_51 
REMARK   14  A    between atoms: C57_63  and  C35_65 
REMARK   15  A    between atoms: C57_63  and  O40_83 
REMARK       I    between atoms: C35_65  and  N36_66 
REMARK   16  A    between atoms: N36_66  and  C13_69 
REMARK   17  A    between atoms: C13_69  and  C14_72 
ROOT
HETATM    1  C36 O6K A 502      10.646   0.408  22.113  1.00 40.96     0.241 C 
HETATM    2  O37 O6K A 502      11.700  -0.011  22.593  1.00 39.67    -0.271 OA
HETATM    3  N38 O6K A 502      10.599   1.198  21.028  1.00 36.33    -0.352 N 
ATOM      4  H38 O6K A 502       9.686   1.468  20.660  1.00  0.00     0.163 HD
ENDROOT
BRANCH   1   5
HETATM    5  C20 O6K A 502       9.330   0.047  22.752  1.00 36.49     0.096 C 
ATOM      6  H20 O6K A 502       8.628  -0.291  21.954  1.00  0.00     0.088 H 
BRANCH   5   7
HETATM    7  N15 O6K A 502       9.619  -1.088  23.629  1.00 40.73    -0.309 N 
HETATM    8  C16 O6K A 502      10.039  -0.950  24.910  1.00 45.88    -0.016 A 
HETATM    9  C17 O6K A 502      10.357  -2.037  25.718  1.00 41.48    -0.066 A 
ATOM     10  H16 O6K A 502      10.133   0.066  25.329  1.00  0.00     0.111 H 
HETATM   11  C18 O6K A 502      10.240  -3.324  25.234  1.00 44.13    -0.050 A 
ATOM     12  H17 O6K A 502      10.705  -1.869  26.751  1.00  0.00     0.085 H 
HETATM   13  C19 O6K A 502       9.815  -3.539  23.908  1.00 40.01     0.105 A 
ATOM     14  H18 O6K A 502      10.479  -4.183  25.884  1.00  0.00     0.087 H 
HETATM   15  C21 O6K A 502       9.511  -2.373  23.062  1.00 42.88     0.275 A 
HETATM   16  N23 O6K A 502       9.694  -4.744  23.304  1.00 44.38    -0.298 N 
HETATM   17  O22 O6K A 502       9.160  -2.514  21.851  1.00 40.80    -0.265 OA
HETATM   18  C24 O6K A 502      10.061  -5.935  23.788  1.00 48.13     0.366 C 
ATOM     19  H23 O6K A 502       9.275  -4.744  22.373  1.00  0.00     0.171 HD
HETATM   20  O26 O6K A 502      10.459  -6.146  24.922  1.00 55.82    -0.238 OA
BRANCH  18  21
HETATM   21  O25 O6K A 502       9.942  -7.030  22.844  1.00 49.37    -0.294 OA
BRANCH  21  22
HETATM   22  C27 O6K A 502      10.979  -7.493  21.959  1.00 55.84     0.061 C 
BRANCH  22  23
HETATM   23  C31 O6K A 502      11.309  -8.948  22.334  1.00 51.10    -0.048 C 
ATOM     24 3H31 O6K A 502      11.576  -9.066  23.410  1.00  0.00     0.031 H 
ATOM     25 2H31 O6K A 502      10.411  -9.609  22.329  1.00  0.00     0.031 H 
ATOM     26 1H31 O6K A 502      12.112  -9.307  21.649  1.00  0.00     0.031 H 
ENDBRANCH  22  23
BRANCH  22  27
HETATM   27  C33 O6K A 502      12.230  -6.612  22.075  1.00 59.65    -0.048 C 
ATOM     28 3H33 O6K A 502      11.993  -5.536  21.905  1.00  0.00     0.031 H 
ATOM     29 2H33 O6K A 502      12.588  -6.542  23.129  1.00  0.00     0.031 H 
ATOM     30 1H33 O6K A 502      13.033  -6.971  21.390  1.00  0.00     0.031 H 
ENDBRANCH  22  27
BRANCH  22  31
HETATM   31  C32 O6K A 502      10.475  -7.395  20.511  1.00 50.94    -0.048 C 
ATOM     32 3H32 O6K A 502       9.512  -7.935  20.358  1.00  0.00     0.031 H 
ATOM     33 2H32 O6K A 502      10.120  -6.370  20.252  1.00  0.00     0.031 H 
ATOM     34 1H32 O6K A 502      11.278  -7.754  19.826  1.00  0.00     0.031 H 
ENDBRANCH  22  31
ENDBRANCH  21  22
ENDBRANCH  18  21
ENDBRANCH   5   7
BRANCH   5  35
HETATM   35  C22 O6K A 502       8.708   1.252  23.472  1.00 35.21    -0.034 C 
ATOM     36 2H22 O6K A 502       9.489   1.921  23.903  1.00  0.00     0.037 H 
ATOM     37 1H22 O6K A 502       8.249   1.969  22.752  1.00  0.00     0.037 H 
BRANCH  35  38
HETATM   38  C29 O6K A 502       7.704   0.798  24.534  1.00 36.38    -0.052 A 
HETATM   39  C34 O6K A 502       7.343   1.749  25.671  1.00 36.80    -0.061 A 
HETATM   40  C30 O6K A 502       6.377   1.573  24.506  1.00 34.06    -0.061 A 
ATOM     41 2H34 O6K A 502       7.262   1.652  26.779  1.00  0.00     0.033 H 
ATOM     42 1H34 O6K A 502       7.842   2.623  26.151  1.00  0.00     0.033 H 
ATOM     43 2H30 O6K A 502       5.878   2.259  23.783  1.00  0.00     0.033 H 
ATOM     44 1H30 O6K A 502       5.302   1.295  24.406  1.00  0.00     0.033 H 
ATOM     45  H29 O6K A 502       7.650  -0.295  24.749  1.00  0.00     0.040 H 
ENDBRANCH  35  38
ENDBRANCH   5  35
ENDBRANCH   1   5
BRANCH   3  46
HETATM   46  C40 O6K A 502      11.772   1.678  20.367  1.00 37.49     0.046 C 
ATOM     47  H40 O6K A 502      12.657   1.296  20.927  1.00  0.00     0.077 H 
BRANCH  46  48
HETATM   48  C42 O6K A 502      11.902   1.198  18.886  1.00 32.82    -0.032 C 
ATOM     49 2H42 O6K A 502      12.357   1.970  18.222  1.00  0.00     0.037 H 
ATOM     50 1H42 O6K A 502      12.680   0.410  18.756  1.00  0.00     0.037 H 
BRANCH  48  51
HETATM   51  C45 O6K A 502      10.549   0.757  18.416  1.00 30.60     0.027 C 
HETATM   52  C54 O6K A 502      10.469  -0.727  18.037  1.00 33.95    -0.039 C 
HETATM   53  C51 O6K A 502       9.308  -0.814  17.054  1.00 39.28    -0.004 C 
ATOM     54 2H54 O6K A 502      11.425  -1.148  17.648  1.00  0.00     0.036 H 
ATOM     55 1H54 O6K A 502      10.376  -1.414  18.911  1.00  0.00     0.036 H 
HETATM   56  N49 O6K A 502       9.330   0.519  16.441  1.00 37.90    -0.361 N 
ATOM     57 2H51 O6K A 502       9.359  -1.666  16.336  1.00  0.00     0.064 H 
ATOM     58 1H51 O6K A 502       8.331  -1.113  17.501  1.00  0.00     0.064 H 
HETATM   59  C47 O6K A 502       9.986   1.428  17.182  1.00 34.72     0.221 C 
ATOM     60  H49 O6K A 502       8.893   0.733  15.545  1.00  0.00     0.162 HD
HETATM   61  O48 O6K A 502      10.100   2.631  16.967  1.00 30.70    -0.273 OA
ATOM     62  H45 O6K A 502       9.830   0.930  19.251  1.00  0.00     0.054 H 
ENDBRANCH  48  51
ENDBRANCH  46  48
BRANCH  46  63
HETATM   63  C57 O6K A 502      11.651   3.171  20.654  1.00 43.89     0.131 C 
ATOM     64  H57 O6K A 502      11.538   3.730  19.696  1.00  0.00     0.101 H 
BRANCH  63  65
HETATM   65  C35 O6K A 502      12.859   3.636  21.363  1.00 48.12     0.248 C 
HETATM   66  N36 O6K A 502      12.704   4.880  21.902  1.00 55.97    -0.355 N 
ATOM     67  H36 O6K A 502      11.795   5.329  21.790  1.00  0.00     0.162 HD
HETATM   68  O41 O6K A 502      13.826   2.897  21.340  1.00 36.04    -0.271 OA
BRANCH  66  69
HETATM   69  C13 O6K A 502      13.733   5.623  22.628  1.00 57.51     0.019 C 
ATOM     70 2H13 O6K A 502      14.752   5.407  22.230  1.00  0.00     0.071 H 
ATOM     71 1H13 O6K A 502      13.688   6.714  22.401  1.00  0.00     0.071 H 
BRANCH  69  72
HETATM   72  C14 O6K A 502      13.649   5.359  24.126  1.00 59.70    -0.041 A 
HETATM   73  C15 O6K A 502      12.417   5.005  24.695  1.00 63.38    -0.075 A 
HETATM   74  C23 O6K A 502      12.306   4.742  26.064  1.00 58.15    -0.082 A 
ATOM     75  H15 O6K A 502      11.523   4.933  24.053  1.00  0.00     0.084 H 
HETATM   76  C25 O6K A 502      13.436   4.832  26.877  1.00 61.49    -0.083 A 
ATOM     77  H23 O6K A 502      11.331   4.465  26.498  1.00  0.00     0.083 H 
HETATM   78  C26 O6K A 502      14.670   5.183  26.315  1.00 61.74    -0.082 A 
ATOM     79  H25 O6K A 502      13.358   4.628  27.958  1.00  0.00     0.083 H 
HETATM   80  C28 O6K A 502      14.773   5.446  24.947  1.00 55.48    -0.075 A 
ATOM     81  H26 O6K A 502      15.565   5.252  26.956  1.00  0.00     0.083 H 
ATOM     82  H28 O6K A 502      15.749   5.724  24.514  1.00  0.00     0.084 H 
ENDBRANCH  69  72
ENDBRANCH  66  69
ENDBRANCH  63  65
BRANCH  63  83
HETATM   83  O40 O6K A 502      10.569   3.553  21.584  1.00 40.57    -0.384 OA
ATOM     84  H40 O6K A 502       9.932   2.860  21.453  1.00  0.00     0.210 HD
ENDBRANCH  63  83
ENDBRANCH  46  63
ENDBRANCH   3  46
TORSDOF 17
