REMARK  17 active torsions:
REMARK  status: ('A' for Active; 'I' for Inactive)
REMARK       I    between atoms: C36_1  and  N38_3 
REMARK    1  A    between atoms: C36_1  and  C20_5 
REMARK    2  A    between atoms: N38_3  and  C40_46 
REMARK    3  A    between atoms: C20_5  and  N15_7 
REMARK    4  A    between atoms: C20_5  and  C22_35 
REMARK       I    between atoms: N23_17  and  C24_18 
REMARK    5  A    between atoms: C24_18  and  O25_21 
REMARK    6  A    between atoms: O25_21  and  C27_22 
REMARK    7  A    between atoms: C27_22  and  C31_23 
REMARK    8  A    between atoms: C27_22  and  C33_27 
REMARK    9  A    between atoms: C27_22  and  C32_31 
REMARK   10  A    between atoms: C22_35  and  C29_38 
REMARK   11  A    between atoms: C40_46  and  C42_48 
REMARK   12  A    between atoms: C40_46  and  C57_63 
REMARK   13  A    between atoms: C42_48  and  C45_51 
REMARK   14  A    between atoms: C57_63  and  C35_65 
REMARK   15  A    between atoms: C57_63  and  O40_83 
REMARK       I    between atoms: C35_65  and  N36_66 
REMARK   16  A    between atoms: N36_66  and  C13_69 
REMARK   17  A    between atoms: C13_69  and  C14_72 
ROOT
HETATM    1  C36 O6K A 502      10.609   0.434  22.196  1.00 40.96     0.241 C 
HETATM    2  O37 O6K A 502      11.658   0.032  22.702  1.00 39.67    -0.271 OA
HETATM    3  N38 O6K A 502      10.575   1.180  21.080  1.00 36.33    -0.352 N 
ATOM      4  H38 O6K A 502       9.667   1.436  20.691  1.00  0.00     0.163 HD
ENDROOT
BRANCH   1   5
HETATM    5  C20 O6K A 502       9.287   0.102  22.835  1.00 36.49     0.096 C 
ATOM      6  H20 O6K A 502       8.579  -0.223  22.038  1.00  0.00     0.088 H 
BRANCH   5   7
HETATM    7  N15 O6K A 502       9.552  -1.036  23.716  1.00 40.73    -0.309 N 
HETATM    8  C16 O6K A 502       9.951  -0.904  25.004  1.00 45.88    -0.016 A 
HETATM    9  C17 O6K A 502      10.248  -1.993  25.816  1.00 41.48    -0.066 A 
ATOM     10  H16 O6K A 502      10.044   0.111  25.427  1.00  0.00     0.111 H 
HETATM   11  C18 O6K A 502      10.130  -3.279  25.328  1.00 44.13    -0.050 A 
ATOM     12  H17 O6K A 502      10.579  -1.829  26.855  1.00  0.00     0.085 H 
HETATM   13  C19 O6K A 502       9.726  -3.489  23.995  1.00 40.01     0.105 A 
ATOM     14  H18 O6K A 502      10.352  -4.140  25.981  1.00  0.00     0.087 H 
HETATM   15  C21 O6K A 502       9.444  -2.320  23.145  1.00 42.88     0.275 A 
HETATM   16  N23 O6K A 502       9.606  -4.693  23.387  1.00 44.38    -0.298 N 
HETATM   17  O22 O6K A 502       9.113  -2.457  21.929  1.00 40.80    -0.265 OA
HETATM   18  C24 O6K A 502       9.956  -5.887  23.876  1.00 48.13     0.366 C 
ATOM     19  H23 O6K A 502       9.203  -4.688  22.450  1.00  0.00     0.171 HD
HETATM   20  O26 O6K A 502      10.333  -6.102  25.017  1.00 55.82    -0.238 OA
BRANCH  18  21
HETATM   21  O25 O6K A 502       9.844  -6.980  22.928  1.00 49.37    -0.294 OA
BRANCH  21  22
HETATM   22  C27 O6K A 502      10.941  -7.611  22.242  1.00 55.84     0.061 C 
BRANCH  22  23
HETATM   23  C31 O6K A 502      10.558  -7.745  20.758  1.00 51.10    -0.048 C 
ATOM     24 3H31 O6K A 502       9.591  -8.279  20.608  1.00  0.00     0.031 H 
ATOM     25 2H31 O6K A 502      10.264  -6.773  20.299  1.00  0.00     0.031 H 
ATOM     26 1H31 O6K A 502      11.408  -8.234  20.227  1.00  0.00     0.031 H 
ENDBRANCH  22  23
BRANCH  22  27
HETATM   27  C33 O6K A 502      11.244  -8.990  22.844  1.00 59.65    -0.048 C 
ATOM     28 3H33 O6K A 502      11.426  -8.929  23.942  1.00  0.00     0.031 H 
ATOM     29 2H33 O6K A 502      10.339  -9.641  22.859  1.00  0.00     0.031 H 
ATOM     30 1H33 O6K A 502      12.094  -9.479  22.313  1.00  0.00     0.031 H 
ENDBRANCH  22  27
BRANCH  22  31
HETATM   31  C32 O6K A 502      12.198  -6.744  22.413  1.00 50.94    -0.048 C 
ATOM     32 3H32 O6K A 502      12.037  -5.692  22.081  1.00  0.00     0.031 H 
ATOM     33 2H32 O6K A 502      12.429  -6.536  23.484  1.00  0.00     0.031 H 
ATOM     34 1H32 O6K A 502      13.048  -7.233  21.882  1.00  0.00     0.031 H 
ENDBRANCH  22  31
ENDBRANCH  21  22
ENDBRANCH  18  21
ENDBRANCH   5   7
BRANCH   5  35
HETATM   35  C22 O6K A 502       8.690   1.321  23.552  1.00 35.21    -0.034 C 
ATOM     36 2H22 O6K A 502       9.484   1.978  23.976  1.00  0.00     0.037 H 
ATOM     37 1H22 O6K A 502       8.240   2.043  22.831  1.00  0.00     0.037 H 
BRANCH  35  38
HETATM   38  C29 O6K A 502       7.683   0.890  24.622  1.00 36.38    -0.052 A 
HETATM   39  C34 O6K A 502       7.199   1.915  25.642  1.00 36.80    -0.061 A 
HETATM   40  C30 O6K A 502       6.299   1.542  24.471  1.00 34.06    -0.061 A 
ATOM     41 2H34 O6K A 502       7.080   1.922  26.751  1.00  0.00     0.033 H 
ATOM     42 1H34 O6K A 502       7.605   2.872  26.045  1.00  0.00     0.033 H 
ATOM     43 2H30 O6K A 502       5.775   2.108  23.665  1.00  0.00     0.033 H 
ATOM     44 1H30 O6K A 502       5.255   1.165  24.365  1.00  0.00     0.033 H 
ATOM     45  H29 O6K A 502       7.710  -0.176  24.946  1.00  0.00     0.040 H 
ENDBRANCH  35  38
ENDBRANCH   5  35
ENDBRANCH   1   5
BRANCH   3  46
HETATM   46  C40 O6K A 502      11.757   1.630  20.411  1.00 37.49     0.046 C 
ATOM     47  H40 O6K A 502      12.636   1.257  20.987  1.00  0.00     0.077 H 
BRANCH  46  48
HETATM   48  C42 O6K A 502      11.891   1.105  18.947  1.00 32.82    -0.032 C 
ATOM     49 2H42 O6K A 502      12.402   1.833  18.274  1.00  0.00     0.037 H 
ATOM     50 1H42 O6K A 502      12.627   0.273  18.855  1.00  0.00     0.037 H 
BRANCH  48  51
HETATM   51  C45 O6K A 502      10.526   0.726  18.458  1.00 30.60     0.027 C 
HETATM   52  C54 O6K A 502      10.383  -0.754  18.081  1.00 33.95    -0.039 C 
HETATM   53  C51 O6K A 502       9.234  -0.790  17.080  1.00 39.28    -0.004 C 
ATOM     54 2H54 O6K A 502      11.325  -1.220  17.707  1.00  0.00     0.036 H 
ATOM     55 1H54 O6K A 502      10.245  -1.433  18.954  1.00  0.00     0.036 H 
HETATM   56  N49 O6K A 502       9.327   0.538  16.465  1.00 37.90    -0.361 N 
ATOM     57 2H51 O6K A 502       9.257  -1.645  16.365  1.00  0.00     0.064 H 
ATOM     58 1H51 O6K A 502       8.238  -1.042  17.513  1.00  0.00     0.064 H 
HETATM   59  C47 O6K A 502      10.013   1.418  17.214  1.00 34.72     0.221 C 
ATOM     60  H49 O6K A 502       8.913   0.770  15.562  1.00  0.00     0.162 HD
HETATM   61  O48 O6K A 502      10.185   2.614  16.998  1.00 30.70    -0.273 OA
ATOM     62  H45 O6K A 502       9.804   0.935  19.281  1.00  0.00     0.054 H 
ENDBRANCH  48  51
ENDBRANCH  46  48
BRANCH  46  63
HETATM   63  C57 O6K A 502      11.646   3.132  20.653  1.00 43.89     0.131 C 
ATOM     64  H57 O6K A 502      11.567   3.665  19.677  1.00  0.00     0.101 H 
BRANCH  63  65
HETATM   65  C35 O6K A 502      12.840   3.603  21.382  1.00 48.12     0.248 C 
HETATM   66  N36 O6K A 502      12.690   4.868  21.870  1.00 55.97    -0.355 N 
ATOM     67  H36 O6K A 502      11.793   5.327  21.713  1.00  0.00     0.162 HD
HETATM   68  O41 O6K A 502      13.794   2.848  21.415  1.00 36.04    -0.271 OA
BRANCH  66  69
HETATM   69  C13 O6K A 502      13.710   5.621  22.600  1.00 57.51     0.019 C 
ATOM     70 2H13 O6K A 502      14.730   5.431  22.193  1.00  0.00     0.071 H 
ATOM     71 1H13 O6K A 502      13.643   6.714  22.388  1.00  0.00     0.071 H 
BRANCH  69  72
HETATM   72  C14 O6K A 502      13.640   5.334  24.095  1.00 59.70    -0.041 A 
HETATM   73  C15 O6K A 502      14.812   5.385  24.862  1.00 63.38    -0.075 A 
HETATM   74  C23 O6K A 502      14.783   5.140  26.238  1.00 58.15    -0.082 A 
ATOM     75  H15 O6K A 502      15.772   5.622  24.373  1.00  0.00     0.084 H 
HETATM   76  C25 O6K A 502      13.570   4.840  26.859  1.00 61.49    -0.083 A 
ATOM     77  H23 O6K A 502      15.713   5.184  26.829  1.00  0.00     0.083 H 
HETATM   78  C26 O6K A 502      12.394   4.789  26.099  1.00 61.74    -0.082 A 
ATOM     79  H25 O6K A 502      13.537   4.644  27.944  1.00  0.00     0.083 H 
HETATM   80  C28 O6K A 502      12.432   5.034  24.724  1.00 55.48    -0.075 A 
ATOM     81  H26 O6K A 502      11.434   4.554  26.588  1.00  0.00     0.083 H 
ATOM     82  H28 O6K A 502      11.502   4.990  24.133  1.00  0.00     0.084 H 
ENDBRANCH  69  72
ENDBRANCH  66  69
ENDBRANCH  63  65
BRANCH  63  83
HETATM   83  O40 O6K A 502      10.543   3.553  21.541  1.00 40.57    -0.384 OA
ATOM     84  H40 O6K A 502      10.278   2.732  21.940  1.00  0.00     0.210 HD
ENDBRANCH  63  83
ENDBRANCH  46  63
ENDBRANCH   3  46
TORSDOF 17
