MODEL 1
REMARK VINA RESULT:     -8.53      0.000      0.000
REMARK  14 active torsions:
REMARK  status: ('A' for Active; 'I' for Inactive)
REMARK       I    between atoms: C24_2  and  N23_8 
REMARK    1  A    between atoms: C24_2  and  O25_3 
REMARK    2  A    between atoms: C27_4  and  O25_3 
REMARK    3  A    between atoms: C20_17  and  N15_16 
REMARK    4  A    between atoms: C20_17  and  C36_22 
REMARK    5  A    between atoms: C20_17  and  C22_18 
REMARK    6  A    between atoms: C22_18  and  C29_19 
REMARK       I    between atoms: C36_22  and  N38_24 
REMARK    7  A    between atoms: C40_26  and  N38_24 
REMARK    8  A    between atoms: C40_26  and  C42_27 
REMARK    9  A    between atoms: C40_26  and  C57_35 
REMARK   10  A    between atoms: C42_27  and  C45_28 
REMARK   11  A    between atoms: C35_38  and  C57_35 
REMARK   12  A    between atoms: C57_35  and  O40_36 
REMARK       I    between atoms: C35_38  and  N36_40 
REMARK   13  A    between atoms: C13_42  and  N36_40 
REMARK   14  A    between atoms: C13_42  and  C14_43 
ROOT
HETATM    1  C36 O6K A 502       9.710  -1.567  22.114  1.00 40.96     0.241 C 
HETATM    2  O37 O6K A 502       9.339  -2.539  21.455  1.00 39.67    -0.271 OA
HETATM    3  N38 O6K A 502      10.105  -0.411  21.556  1.00 36.33    -0.352 N 
ATOM      4  H38 O6K A 502      10.353   0.367  22.167  1.00  0.00     0.163 HD
ENDROOT
BRANCH   3   5
HETATM    5  C40 O6K A 502      10.191  -0.223  20.141  1.00 37.49     0.123 C 
BRANCH   5   6
HETATM    6  C42 O6K A 502       9.008   0.600  19.541  1.00 32.82     0.042 C 
BRANCH   6   7
HETATM    7  C45 O6K A 502       8.728   0.082  18.162  1.00 30.60     0.081 C 
HETATM    8  C54 O6K A 502       9.196  -1.359  17.927  1.00 33.95     0.034 C 
HETATM    9  C51 O6K A 502       9.402  -1.460  16.420  1.00 39.28     0.123 C 
HETATM   10  N49 O6K A 502       9.749  -0.078  16.070  1.00 37.90    -0.361 N 
HETATM   11  C47 O6K A 502       9.365   0.813  17.000  1.00 34.72     0.221 C 
ATOM     12  H49 O6K A 502      10.232   0.180  15.209  1.00  0.00     0.162 HD
HETATM   13  O48 O6K A 502       9.448   2.037  16.947  1.00 30.70    -0.273 OA
ENDBRANCH   6   7
ENDBRANCH   5   6
BRANCH   5  14
HETATM   14  C57 O6K A 502      11.609   0.327  20.028  1.00 43.89     0.232 C 
BRANCH  14  15
HETATM   15  C35 O6K A 502      11.584   1.792  20.196  1.00 48.12     0.248 C 
HETATM   16  N36 O6K A 502      11.891   2.457  19.045  1.00 55.97    -0.355 N 
ATOM     17  H36 O6K A 502      12.070   1.895  18.213  1.00  0.00     0.162 HD
HETATM   18  O41 O6K A 502      11.346   2.212  21.314  1.00 36.04    -0.271 OA
BRANCH  16  19
HETATM   19  C13 O6K A 502      11.987   3.910  18.904  1.00 57.51     0.161 C 
BRANCH  19  20
HETATM   20  C14 O6K A 502      13.436   4.375  18.980  1.00 59.70    -0.041 A 
HETATM   21  C15 O6K A 502      13.727   5.743  18.875  1.00 63.38     0.009 A 
HETATM   22  C23 O6K A 502      15.044   6.206  18.953  1.00 58.15     0.001 A 
HETATM   23  C25 O6K A 502      16.085   5.295  19.138  1.00 61.49     0.000 A 
HETATM   24  C26 O6K A 502      15.802   3.927  19.244  1.00 61.74     0.001 A 
HETATM   25  C28 O6K A 502      14.483   3.472  19.164  1.00 55.48     0.009 A 
ENDBRANCH  19  20
ENDBRANCH  16  19
ENDBRANCH  14  15
BRANCH  14  26
HETATM   26  O40 O6K A 502      12.249   0.168  18.706  1.00 40.57    -0.384 OA
ATOM     27  H40 O6K A 502      11.516  -0.072  18.152  1.00  0.00     0.210 HD
ENDBRANCH  14  26
ENDBRANCH   5  14
ENDBRANCH   3   5
BRANCH   1  28
HETATM   28  C20 O6K A 502       9.746  -1.645  23.618  1.00 36.49     0.184 C 
BRANCH  28  29
HETATM   29  N15 O6K A 502       9.601  -0.266  24.085  1.00 40.73    -0.309 N 
HETATM   30  C16 O6K A 502       8.408   0.288  24.411  1.00 45.88     0.095 A 
HETATM   31  C17 O6K A 502       8.278   1.615  24.806  1.00 41.48     0.020 A 
HETATM   32  C18 O6K A 502       9.389   2.428  24.895  1.00 44.13     0.037 A 
HETATM   33  C19 O6K A 502      10.660   1.919  24.564  1.00 40.01     0.105 A 
HETATM   34  N23 O6K A 502      11.819   2.619  24.574  1.00 44.38    -0.298 N 
HETATM   35  C21 O6K A 502      10.770   0.519  24.120  1.00 42.88     0.275 A 
HETATM   36  C24 O6K A 502      11.971   3.932  24.774  1.00 48.13     0.366 C 
ATOM     37  H23 O6K A 502      12.672   2.084  24.409  1.00  0.00     0.171 HD
HETATM   38  O26 O6K A 502      11.087   4.705  25.108  1.00 55.82    -0.238 OA
HETATM   39  O22 O6K A 502      11.887   0.025  23.777  1.00 40.80    -0.265 OA
BRANCH  36  40
HETATM   40  O25 O6K A 502      13.325   4.417  24.576  1.00 49.37    -0.294 OA
BRANCH  40  41
HETATM   41  C27 O6K A 502      13.981   4.577  23.305  1.00 55.84     0.061 C 
HETATM   42  C31 O6K A 502      13.002   5.284  22.351  1.00 51.10     0.046 C 
HETATM   43  C33 O6K A 502      14.402   3.218  22.731  1.00 59.65     0.046 C 
HETATM   44  C32 O6K A 502      15.256   5.410  23.508  1.00 50.94     0.046 C 
ENDBRANCH  40  41
ENDBRANCH  36  40
ENDBRANCH  28  29
BRANCH  28  45
HETATM   45  C22 O6K A 502       8.673  -2.603  24.155  1.00 35.21     0.040 C 
BRANCH  45  46
HETATM   46  C29 O6K A 502       9.174  -3.351  25.392  1.00 36.38    -0.012 A 
HETATM   47  C34 O6K A 502       8.192  -4.194  26.200  1.00 36.80     0.005 A 
HETATM   48  C30 O6K A 502       9.159  -4.881  25.243  1.00 34.06     0.005 A 
ENDBRANCH  45  46
ENDBRANCH  28  45
ENDBRANCH   1  28
TORSDOF 14
ENDMDL
MODEL 2
REMARK VINA RESULT:     -8.52      2.455      8.524
REMARK  14 active torsions:
REMARK  status: ('A' for Active; 'I' for Inactive)
REMARK       I    between atoms: C24_2  and  N23_8 
REMARK    1  A    between atoms: C24_2  and  O25_3 
REMARK    2  A    between atoms: C27_4  and  O25_3 
REMARK    3  A    between atoms: C20_17  and  N15_16 
REMARK    4  A    between atoms: C20_17  and  C36_22 
REMARK    5  A    between atoms: C20_17  and  C22_18 
REMARK    6  A    between atoms: C22_18  and  C29_19 
REMARK       I    between atoms: C36_22  and  N38_24 
REMARK    7  A    between atoms: C40_26  and  N38_24 
REMARK    8  A    between atoms: C40_26  and  C42_27 
REMARK    9  A    between atoms: C40_26  and  C57_35 
REMARK   10  A    between atoms: C42_27  and  C45_28 
REMARK   11  A    between atoms: C35_38  and  C57_35 
REMARK   12  A    between atoms: C57_35  and  O40_36 
REMARK       I    between atoms: C35_38  and  N36_40 
REMARK   13  A    between atoms: C13_42  and  N36_40 
REMARK   14  A    between atoms: C13_42  and  C14_43 
ROOT
HETATM    1  C36 O6K A 502      10.251   1.441  21.131  1.00 40.96     0.241 C 
HETATM    2  O37 O6K A 502      10.119   2.555  21.639  1.00 39.67    -0.271 OA
HETATM    3  N38 O6K A 502       9.952   0.302  21.778  1.00 36.33    -0.352 N 
ATOM      4  H38 O6K A 502      10.042  -0.582  21.276  1.00  0.00     0.163 HD
ENDROOT
BRANCH   3   5
HETATM    5  C40 O6K A 502       9.514   0.275  23.139  1.00 37.49     0.123 C 
BRANCH   5   6
HETATM    6  C42 O6K A 502       7.976   0.486  23.310  1.00 32.82     0.042 C 
BRANCH   6   7
HETATM    7  C45 O6K A 502       7.753   1.341  24.521  1.00 30.60     0.081 C 
HETATM    8  C54 O6K A 502       8.917   2.285  24.846  1.00 33.95     0.034 C 
HETATM    9  C51 O6K A 502       8.789   2.558  26.340  1.00 39.28     0.123 C 
HETATM   10  N49 O6K A 502       8.153   1.327  26.820  1.00 37.90    -0.361 N 
HETATM   11  C47 O6K A 502       7.541   0.636  25.843  1.00 34.72     0.221 C 
ATOM     12  H49 O6K A 502       8.173   1.026  27.794  1.00  0.00     0.162 HD
HETATM   13  O48 O6K A 502       6.863  -0.381  25.954  1.00 30.70    -0.273 OA
ENDBRANCH   6   7
ENDBRANCH   5   6
BRANCH   5  14
HETATM   14  C57 O6K A 502      10.137  -1.039  23.596  1.00 43.89     0.232 C 
BRANCH  14  15
HETATM   15  C35 O6K A 502       9.208  -2.150  23.313  1.00 48.12     0.248 C 
HETATM   16  N36 O6K A 502       8.540  -2.571  24.426  1.00 55.97    -0.355 N 
ATOM     17  H36 O6K A 502       8.722  -2.073  25.298  1.00  0.00     0.162 HD
HETATM   18  O41 O6K A 502       9.187  -2.570  22.171  1.00 36.04    -0.271 OA
BRANCH  16  19
HETATM   19  C13 O6K A 502       7.584  -3.676  24.474  1.00 57.51     0.161 C 
BRANCH  19  20
HETATM   20  C14 O6K A 502       8.242  -4.950  24.991  1.00 59.70    -0.041 A 
HETATM   21  C15 O6K A 502       7.608  -6.184  24.790  1.00 63.38     0.009 A 
HETATM   22  C23 O6K A 502       8.189  -7.374  25.239  1.00 58.15     0.001 A 
HETATM   23  C25 O6K A 502       9.419  -7.333  25.898  1.00 61.49     0.000 A 
HETATM   24  C26 O6K A 502      10.059  -6.104  26.101  1.00 61.74     0.001 A 
HETATM   25  C28 O6K A 502       9.471  -4.920  25.650  1.00 55.48     0.009 A 
ENDBRANCH  19  20
ENDBRANCH  16  19
ENDBRANCH  14  15
BRANCH  14  26
HETATM   26  O40 O6K A 502      10.353  -1.167  25.052  1.00 40.57    -0.384 OA
ATOM     27  H40 O6K A 502      11.248  -1.483  25.099  1.00  0.00     0.210 HD
ENDBRANCH  14  26
ENDBRANCH   5  14
ENDBRANCH   3   5
BRANCH   1  28
HETATM   28  C20 O6K A 502      10.777   1.309  19.726  1.00 36.49     0.184 C 
BRANCH  28  29
HETATM   29  N15 O6K A 502      12.178   1.728  19.792  1.00 40.73    -0.309 N 
HETATM   30  C16 O6K A 502      13.122   1.059  20.496  1.00 45.88     0.095 A 
HETATM   31  C17 O6K A 502      14.440   1.495  20.591  1.00 41.48     0.020 A 
HETATM   32  C18 O6K A 502      14.841   2.646  19.943  1.00 44.13     0.037 A 
HETATM   33  C19 O6K A 502      13.909   3.394  19.199  1.00 40.01     0.105 A 
HETATM   34  N23 O6K A 502      14.166   4.554  18.550  1.00 44.38    -0.298 N 
HETATM   35  C21 O6K A 502      12.514   2.929  19.135  1.00 42.88     0.275 A 
HETATM   36  C24 O6K A 502      15.294   5.271  18.585  1.00 48.13     0.366 C 
ATOM     37  H23 O6K A 502      13.413   4.923  17.968  1.00  0.00     0.171 HD
HETATM   38  O26 O6K A 502      16.336   4.926  19.119  1.00 55.82    -0.238 OA
HETATM   39  O22 O6K A 502      11.630   3.588  18.508  1.00 40.80    -0.265 OA
BRANCH  36  40
HETATM   40  O25 O6K A 502      15.215   6.549  17.902  1.00 49.37    -0.294 OA
BRANCH  40  41
HETATM   41  C27 O6K A 502      15.934   6.908  16.707  1.00 55.84     0.061 C 
HETATM   42  C31 O6K A 502      16.075   5.644  15.841  1.00 51.10     0.046 C 
HETATM   43  C33 O6K A 502      17.316   7.480  17.051  1.00 59.65     0.046 C 
HETATM   44  C32 O6K A 502      15.150   8.002  15.967  1.00 50.94     0.046 C 
ENDBRANCH  40  41
ENDBRANCH  36  40
ENDBRANCH  28  29
BRANCH  28  45
HETATM   45  C22 O6K A 502      10.575  -0.112  19.183  1.00 35.21     0.040 C 
BRANCH  45  46
HETATM   46  C29 O6K A 502      10.595  -0.123  17.653  1.00 36.38    -0.012 A 
HETATM   47  C34 O6K A 502      10.810  -1.445  16.921  1.00 36.80     0.005 A 
HETATM   48  C30 O6K A 502       9.405  -0.864  17.021  1.00 34.06     0.005 A 
ENDBRANCH  45  46
ENDBRANCH  28  45
ENDBRANCH   1  28
TORSDOF 14
ENDMDL
MODEL 3
REMARK VINA RESULT:     -8.47      2.506      6.349
REMARK  14 active torsions:
REMARK  status: ('A' for Active; 'I' for Inactive)
REMARK       I    between atoms: C24_2  and  N23_8 
REMARK    1  A    between atoms: C24_2  and  O25_3 
REMARK    2  A    between atoms: C27_4  and  O25_3 
REMARK    3  A    between atoms: C20_17  and  N15_16 
REMARK    4  A    between atoms: C20_17  and  C36_22 
REMARK    5  A    between atoms: C20_17  and  C22_18 
REMARK    6  A    between atoms: C22_18  and  C29_19 
REMARK       I    between atoms: C36_22  and  N38_24 
REMARK    7  A    between atoms: C40_26  and  N38_24 
REMARK    8  A    between atoms: C40_26  and  C42_27 
REMARK    9  A    between atoms: C40_26  and  C57_35 
REMARK   10  A    between atoms: C42_27  and  C45_28 
REMARK   11  A    between atoms: C35_38  and  C57_35 
REMARK   12  A    between atoms: C57_35  and  O40_36 
REMARK       I    between atoms: C35_38  and  N36_40 
REMARK   13  A    between atoms: C13_42  and  N36_40 
REMARK   14  A    between atoms: C13_42  and  C14_43 
ROOT
HETATM    1  C36 O6K A 502      10.646   0.408  22.113  1.00 40.96     0.241 C 
HETATM    2  O37 O6K A 502      11.700  -0.011  22.593  1.00 39.67    -0.271 OA
HETATM    3  N38 O6K A 502      10.599   1.198  21.028  1.00 36.33    -0.352 N 
ATOM      4  H38 O6K A 502       9.686   1.468  20.660  1.00  0.00     0.163 HD
ENDROOT
BRANCH   3   5
HETATM    5  C40 O6K A 502      11.772   1.678  20.367  1.00 37.49     0.123 C 
BRANCH   5   6
HETATM    6  C42 O6K A 502      11.902   1.198  18.886  1.00 32.82     0.042 C 
BRANCH   6   7
HETATM    7  C45 O6K A 502      10.549   0.757  18.416  1.00 30.60     0.081 C 
HETATM    8  C54 O6K A 502      10.469  -0.727  18.037  1.00 33.95     0.034 C 
HETATM    9  C51 O6K A 502       9.308  -0.814  17.054  1.00 39.28     0.123 C 
HETATM   10  N49 O6K A 502       9.330   0.519  16.441  1.00 37.90    -0.361 N 
HETATM   11  C47 O6K A 502       9.986   1.428  17.182  1.00 34.72     0.221 C 
ATOM     12  H49 O6K A 502       8.893   0.733  15.545  1.00  0.00     0.162 HD
HETATM   13  O48 O6K A 502      10.100   2.631  16.967  1.00 30.70    -0.273 OA
ENDBRANCH   6   7
ENDBRANCH   5   6
BRANCH   5  14
HETATM   14  C57 O6K A 502      11.651   3.171  20.654  1.00 43.89     0.232 C 
BRANCH  14  15
HETATM   15  C35 O6K A 502      12.859   3.636  21.363  1.00 48.12     0.248 C 
HETATM   16  N36 O6K A 502      12.704   4.880  21.902  1.00 55.97    -0.355 N 
ATOM     17  H36 O6K A 502      11.795   5.329  21.790  1.00  0.00     0.162 HD
HETATM   18  O41 O6K A 502      13.826   2.897  21.340  1.00 36.04    -0.271 OA
BRANCH  16  19
HETATM   19  C13 O6K A 502      13.733   5.623  22.628  1.00 57.51     0.161 C 
BRANCH  19  20
HETATM   20  C14 O6K A 502      13.649   5.359  24.126  1.00 59.70    -0.041 A 
HETATM   21  C15 O6K A 502      12.417   5.005  24.695  1.00 63.38     0.009 A 
HETATM   22  C23 O6K A 502      12.306   4.742  26.064  1.00 58.15     0.001 A 
HETATM   23  C25 O6K A 502      13.436   4.832  26.877  1.00 61.49     0.000 A 
HETATM   24  C26 O6K A 502      14.670   5.183  26.315  1.00 61.74     0.001 A 
HETATM   25  C28 O6K A 502      14.773   5.446  24.947  1.00 55.48     0.009 A 
ENDBRANCH  19  20
ENDBRANCH  16  19
ENDBRANCH  14  15
BRANCH  14  26
HETATM   26  O40 O6K A 502      10.569   3.553  21.584  1.00 40.57    -0.384 OA
ATOM     27  H40 O6K A 502       9.932   2.860  21.453  1.00  0.00     0.210 HD
ENDBRANCH  14  26
ENDBRANCH   5  14
ENDBRANCH   3   5
BRANCH   1  28
HETATM   28  C20 O6K A 502       9.330   0.047  22.752  1.00 36.49     0.184 C 
BRANCH  28  29
HETATM   29  N15 O6K A 502       9.619  -1.088  23.629  1.00 40.73    -0.309 N 
HETATM   30  C16 O6K A 502      10.039  -0.950  24.910  1.00 45.88     0.095 A 
HETATM   31  C17 O6K A 502      10.357  -2.037  25.718  1.00 41.48     0.020 A 
HETATM   32  C18 O6K A 502      10.240  -3.324  25.234  1.00 44.13     0.037 A 
HETATM   33  C19 O6K A 502       9.815  -3.539  23.908  1.00 40.01     0.105 A 
HETATM   34  N23 O6K A 502       9.694  -4.744  23.304  1.00 44.38    -0.298 N 
HETATM   35  C21 O6K A 502       9.511  -2.373  23.062  1.00 42.88     0.275 A 
HETATM   36  C24 O6K A 502      10.061  -5.935  23.788  1.00 48.13     0.366 C 
ATOM     37  H23 O6K A 502       9.275  -4.744  22.373  1.00  0.00     0.171 HD
HETATM   38  O26 O6K A 502      10.459  -6.146  24.922  1.00 55.82    -0.238 OA
HETATM   39  O22 O6K A 502       9.160  -2.514  21.851  1.00 40.80    -0.265 OA
BRANCH  36  40
HETATM   40  O25 O6K A 502       9.942  -7.030  22.844  1.00 49.37    -0.294 OA
BRANCH  40  41
HETATM   41  C27 O6K A 502      10.979  -7.493  21.959  1.00 55.84     0.061 C 
HETATM   42  C31 O6K A 502      11.309  -8.948  22.334  1.00 51.10     0.046 C 
HETATM   43  C33 O6K A 502      12.230  -6.612  22.075  1.00 59.65     0.046 C 
HETATM   44  C32 O6K A 502      10.475  -7.395  20.511  1.00 50.94     0.046 C 
ENDBRANCH  40  41
ENDBRANCH  36  40
ENDBRANCH  28  29
BRANCH  28  45
HETATM   45  C22 O6K A 502       8.708   1.252  23.472  1.00 35.21     0.040 C 
BRANCH  45  46
HETATM   46  C29 O6K A 502       7.704   0.798  24.534  1.00 36.38    -0.012 A 
HETATM   47  C34 O6K A 502       7.343   1.749  25.671  1.00 36.80     0.005 A 
HETATM   48  C30 O6K A 502       6.377   1.573  24.506  1.00 34.06     0.005 A 
ENDBRANCH  45  46
ENDBRANCH  28  45
ENDBRANCH   1  28
TORSDOF 14
ENDMDL
