MODEL 1
REMARK VINA RESULT:     -9.84      0.000      0.000
REMARK  14 active torsions:
REMARK  status: ('A' for Active; 'I' for Inactive)
REMARK       I    between atoms: C24_2  and  N23_8 
REMARK    1  A    between atoms: C24_2  and  O25_3 
REMARK    2  A    between atoms: C27_4  and  O25_3 
REMARK    3  A    between atoms: C20_17  and  N15_16 
REMARK    4  A    between atoms: C20_17  and  C36_22 
REMARK    5  A    between atoms: C20_17  and  C22_18 
REMARK    6  A    between atoms: C22_18  and  C29_19 
REMARK       I    between atoms: C36_22  and  N38_24 
REMARK    7  A    between atoms: C40_26  and  N38_24 
REMARK    8  A    between atoms: C40_26  and  C42_27 
REMARK    9  A    between atoms: C40_26  and  C57_35 
REMARK   10  A    between atoms: C42_27  and  C45_28 
REMARK   11  A    between atoms: C35_38  and  C57_35 
REMARK   12  A    between atoms: C57_35  and  O40_36 
REMARK       I    between atoms: C35_38  and  N36_40 
REMARK   13  A    between atoms: C13_42  and  N36_40 
REMARK   14  A    between atoms: C13_42  and  C14_43 
ROOT
HETATM    1  C36 O6K A 502      12.364   2.579  23.638  1.00 40.96     0.241 C 
HETATM    2  O37 O6K A 502      12.820   1.744  24.420  1.00 39.67    -0.271 OA
HETATM    3  N38 O6K A 502      11.047   2.755  23.440  1.00 36.33    -0.352 N 
ATOM      4  H38 O6K A 502      10.743   3.498  22.812  1.00  0.00     0.163 HD
ENDROOT
BRANCH   3   5
HETATM    5  C40 O6K A 502      10.053   1.945  24.074  1.00 37.49     0.123 C 
BRANCH   5   6
HETATM    6  C42 O6K A 502       9.360   2.636  25.291  1.00 32.82     0.042 C 
BRANCH   6   7
HETATM    7  C45 O6K A 502       8.439   1.642  25.932  1.00 30.60     0.081 C 
HETATM    8  C54 O6K A 502       9.003   0.217  26.001  1.00 33.95     0.034 C 
HETATM    9  C51 O6K A 502       7.776  -0.683  26.072  1.00 39.28     0.123 C 
HETATM   10  N49 O6K A 502       6.775   0.112  25.352  1.00 37.90    -0.361 N 
HETATM   11  C47 O6K A 502       7.093   1.415  25.278  1.00 34.72     0.221 C 
ATOM     12  H49 O6K A 502       5.926  -0.284  24.950  1.00  0.00     0.162 HD
HETATM   13  O48 O6K A 502       6.418   2.328  24.811  1.00 30.70    -0.273 OA
ENDBRANCH   6   7
ENDBRANCH   5   6
BRANCH   5  14
HETATM   14  C57 O6K A 502       9.211   1.557  22.864  1.00 43.89     0.232 C 
BRANCH  14  15
HETATM   15  C35 O6K A 502       9.685   0.268  22.326  1.00 48.12     0.248 C 
HETATM   16  N36 O6K A 502       9.099  -0.803  22.936  1.00 55.97    -0.355 N 
ATOM     17  H36 O6K A 502       8.399  -0.608  23.651  1.00  0.00     0.162 HD
HETATM   18  O41 O6K A 502      10.546   0.316  21.467  1.00 36.04    -0.271 OA
BRANCH  16  19
HETATM   19  C13 O6K A 502       9.392  -2.207  22.650  1.00 57.51     0.161 C 
BRANCH  19  20
HETATM   20  C14 O6K A 502       9.017  -3.097  23.828  1.00 59.70    -0.041 A 
HETATM   21  C15 O6K A 502      10.000  -3.457  24.761  1.00 63.38     0.009 A 
HETATM   22  C23 O6K A 502       9.688  -4.262  25.861  1.00 58.15     0.001 A 
HETATM   23  C25 O6K A 502       8.379  -4.714  26.035  1.00 61.49     0.000 A 
HETATM   24  C26 O6K A 502       7.391  -4.358  25.108  1.00 61.74     0.001 A 
HETATM   25  C28 O6K A 502       7.711  -3.554  24.011  1.00 55.48     0.009 A 
ENDBRANCH  19  20
ENDBRANCH  16  19
ENDBRANCH  14  15
BRANCH  14  26
HETATM   26  O40 O6K A 502       9.328   2.453  21.695  1.00 40.57    -0.384 OA
ATOM     27  H40 O6K A 502      10.242   2.710  21.725  1.00  0.00     0.210 HD
ENDBRANCH  14  26
ENDBRANCH   5  14
ENDBRANCH   3   5
BRANCH   1  28
HETATM   28  C20 O6K A 502      13.296   3.453  22.840  1.00 36.49     0.184 C 
BRANCH  28  29
HETATM   29  N15 O6K A 502      12.595   3.730  21.586  1.00 40.73    -0.309 N 
HETATM   30  C16 O6K A 502      12.090   4.946  21.268  1.00 45.88     0.095 A 
HETATM   31  C17 O6K A 502      11.383   5.184  20.094  1.00 41.48     0.020 A 
HETATM   32  C18 O6K A 502      11.179   4.166  19.185  1.00 44.13     0.037 A 
HETATM   33  C19 O6K A 502      11.671   2.874  19.455  1.00 40.01     0.105 A 
HETATM   34  N23 O6K A 502      11.508   1.785  18.667  1.00 44.38    -0.298 N 
HETATM   35  C21 O6K A 502      12.392   2.639  20.717  1.00 42.88     0.275 A 
HETATM   36  C24 O6K A 502      10.761   1.689  17.562  1.00 48.13     0.366 C 
ATOM     37  H23 O6K A 502      12.011   0.944  18.948  1.00  0.00     0.171 HD
HETATM   38  O26 O6K A 502      10.193   2.616  17.008  1.00 55.82    -0.238 OA
HETATM   39  O22 O6K A 502      12.822   1.485  21.023  1.00 40.80    -0.265 OA
BRANCH  36  40
HETATM   40  O25 O6K A 502      10.666   0.347  17.017  1.00 49.37    -0.294 OA
BRANCH  40  41
HETATM   41  C27 O6K A 502       9.852  -0.717  17.542  1.00 55.84     0.061 C 
HETATM   42  C31 O6K A 502      10.774  -1.694  18.293  1.00 51.10     0.046 C 
HETATM   43  C33 O6K A 502       9.105  -1.443  16.415  1.00 59.65     0.046 C 
HETATM   44  C32 O6K A 502       8.798  -0.115  18.484  1.00 50.94     0.046 C 
ENDBRANCH  40  41
ENDBRANCH  36  40
ENDBRANCH  28  29
BRANCH  28  45
HETATM   45  C22 O6K A 502      13.692   4.711  23.625  1.00 35.21     0.040 C 
BRANCH  45  46
HETATM   46  C29 O6K A 502      12.721   4.967  24.780  1.00 36.38    -0.012 A 
HETATM   47  C34 O6K A 502      13.277   5.184  26.184  1.00 36.80     0.005 A 
HETATM   48  C30 O6K A 502      12.814   6.384  25.368  1.00 34.06     0.005 A 
ENDBRANCH  45  46
ENDBRANCH  28  45
ENDBRANCH   1  28
TORSDOF 14
ENDMDL
MODEL 2
REMARK VINA RESULT:     -9.68      2.984      5.503
REMARK  14 active torsions:
REMARK  status: ('A' for Active; 'I' for Inactive)
REMARK       I    between atoms: C24_2  and  N23_8 
REMARK    1  A    between atoms: C24_2  and  O25_3 
REMARK    2  A    between atoms: C27_4  and  O25_3 
REMARK    3  A    between atoms: C20_17  and  N15_16 
REMARK    4  A    between atoms: C20_17  and  C36_22 
REMARK    5  A    between atoms: C20_17  and  C22_18 
REMARK    6  A    between atoms: C22_18  and  C29_19 
REMARK       I    between atoms: C36_22  and  N38_24 
REMARK    7  A    between atoms: C40_26  and  N38_24 
REMARK    8  A    between atoms: C40_26  and  C42_27 
REMARK    9  A    between atoms: C40_26  and  C57_35 
REMARK   10  A    between atoms: C42_27  and  C45_28 
REMARK   11  A    between atoms: C35_38  and  C57_35 
REMARK   12  A    between atoms: C57_35  and  O40_36 
REMARK       I    between atoms: C35_38  and  N36_40 
REMARK   13  A    between atoms: C13_42  and  N36_40 
REMARK   14  A    between atoms: C13_42  and  C14_43 
ROOT
HETATM    1  C36 O6K A 502      10.239   1.405  21.171  1.00 40.96     0.241 C 
HETATM    2  O37 O6K A 502      10.119   2.530  21.657  1.00 39.67    -0.271 OA
HETATM    3  N38 O6K A 502       9.926   0.282  21.839  1.00 36.33    -0.352 N 
ATOM      4  H38 O6K A 502      10.007  -0.613  21.355  1.00  0.00     0.163 HD
ENDROOT
BRANCH   3   5
HETATM    5  C40 O6K A 502       9.482   0.287  23.198  1.00 37.49     0.123 C 
BRANCH   5   6
HETATM    6  C42 O6K A 502       7.946   0.514  23.359  1.00 32.82     0.042 C 
BRANCH   6   7
HETATM    7  C45 O6K A 502       7.722   1.357  24.578  1.00 30.60     0.081 C 
HETATM    8  C54 O6K A 502       8.878   2.311  24.902  1.00 33.95     0.034 C 
HETATM    9  C51 O6K A 502       8.758   2.573  26.398  1.00 39.28     0.123 C 
HETATM   10  N49 O6K A 502       8.139   1.331  26.874  1.00 37.90    -0.361 N 
HETATM   11  C47 O6K A 502       7.527   0.641  25.897  1.00 34.72     0.221 C 
ATOM     12  H49 O6K A 502       8.169   1.024  27.846  1.00  0.00     0.162 HD
HETATM   13  O48 O6K A 502       6.861  -0.385  26.005  1.00 30.70    -0.273 OA
ENDBRANCH   6   7
ENDBRANCH   5   6
BRANCH   5  14
HETATM   14  C57 O6K A 502      10.093  -1.023  23.685  1.00 43.89     0.232 C 
BRANCH  14  15
HETATM   15  C35 O6K A 502       9.178  -2.138  23.376  1.00 48.12     0.248 C 
HETATM   16  N36 O6K A 502       8.508  -2.587  24.477  1.00 55.97    -0.355 N 
ATOM     17  H36 O6K A 502       8.680  -2.104  25.359  1.00  0.00     0.162 HD
HETATM   18  O41 O6K A 502       9.169  -2.537  22.226  1.00 36.04    -0.271 OA
BRANCH  16  19
HETATM   19  C13 O6K A 502       7.564  -3.704  24.498  1.00 57.51     0.161 C 
BRANCH  19  20
HETATM   20  C14 O6K A 502       8.229  -4.976  25.009  1.00 59.70    -0.041 A 
HETATM   21  C15 O6K A 502       7.566  -6.204  24.874  1.00 63.38     0.009 A 
HETATM   22  C23 O6K A 502       8.152  -7.392  25.320  1.00 58.15     0.001 A 
HETATM   23  C25 O6K A 502       9.417  -7.358  25.908  1.00 61.49     0.000 A 
HETATM   24  C26 O6K A 502      10.087  -6.135  26.045  1.00 61.74     0.001 A 
HETATM   25  C28 O6K A 502       9.494  -4.952  25.598  1.00 55.48     0.009 A 
ENDBRANCH  19  20
ENDBRANCH  16  19
ENDBRANCH  14  15
BRANCH  14  26
HETATM   26  O40 O6K A 502      10.258  -1.141  25.148  1.00 40.57    -0.384 OA
ATOM     27  H40 O6K A 502      10.159  -2.075  25.291  1.00  0.00     0.210 HD
ENDBRANCH  14  26
ENDBRANCH   5  14
ENDBRANCH   3   5
BRANCH   1  28
HETATM   28  C20 O6K A 502      10.769   1.240  19.771  1.00 36.49     0.184 C 
BRANCH  28  29
HETATM   29  N15 O6K A 502      12.164   1.679  19.826  1.00 40.73    -0.309 N 
HETATM   30  C16 O6K A 502      13.120   1.035  20.538  1.00 45.88     0.095 A 
HETATM   31  C17 O6K A 502      14.431   1.491  20.622  1.00 41.48     0.020 A 
HETATM   32  C18 O6K A 502      14.815   2.637  19.955  1.00 44.13     0.037 A 
HETATM   33  C19 O6K A 502      13.870   3.360  19.201  1.00 40.01     0.105 A 
HETATM   34  N23 O6K A 502      14.108   4.513  18.533  1.00 44.38    -0.298 N 
HETATM   35  C21 O6K A 502      12.481   2.874  19.150  1.00 42.88     0.275 A 
HETATM   36  C24 O6K A 502      15.226   5.246  18.553  1.00 48.13     0.366 C 
ATOM     37  H23 O6K A 502      13.349   4.862  17.948  1.00  0.00     0.171 HD
HETATM   38  O26 O6K A 502      16.274   4.925  19.090  1.00 55.82    -0.238 OA
HETATM   39  O22 O6K A 502      11.586   3.510  18.515  1.00 40.80    -0.265 OA
BRANCH  36  40
HETATM   40  O25 O6K A 502      15.127   6.511  17.850  1.00 49.37    -0.294 OA
BRANCH  40  41
HETATM   41  C27 O6K A 502      15.873   6.879  16.675  1.00 55.84     0.061 C 
HETATM   42  C31 O6K A 502      16.073   5.613  15.824  1.00 51.10     0.046 C 
HETATM   43  C33 O6K A 502      17.229   7.490  17.056  1.00 59.65     0.046 C 
HETATM   44  C32 O6K A 502      15.085   7.948  15.902  1.00 50.94     0.046 C 
ENDBRANCH  40  41
ENDBRANCH  36  40
ENDBRANCH  28  29
BRANCH  28  45
HETATM   45  C22 O6K A 502      10.587  -0.199  19.269  1.00 35.21     0.040 C 
BRANCH  45  46
HETATM   46  C29 O6K A 502       9.340  -0.321  18.391  1.00 36.38    -0.012 A 
HETATM   47  C34 O6K A 502       9.363   0.264  16.982  1.00 36.80     0.005 A 
HETATM   48  C30 O6K A 502       9.525  -1.239  17.172  1.00 34.06     0.005 A 
ENDBRANCH  45  46
ENDBRANCH  28  45
ENDBRANCH   1  28
TORSDOF 14
ENDMDL
MODEL 3
REMARK VINA RESULT:     -9.66      1.968      8.267
REMARK  14 active torsions:
REMARK  status: ('A' for Active; 'I' for Inactive)
REMARK       I    between atoms: C24_2  and  N23_8 
REMARK    1  A    between atoms: C24_2  and  O25_3 
REMARK    2  A    between atoms: C27_4  and  O25_3 
REMARK    3  A    between atoms: C20_17  and  N15_16 
REMARK    4  A    between atoms: C20_17  and  C36_22 
REMARK    5  A    between atoms: C20_17  and  C22_18 
REMARK    6  A    between atoms: C22_18  and  C29_19 
REMARK       I    between atoms: C36_22  and  N38_24 
REMARK    7  A    between atoms: C40_26  and  N38_24 
REMARK    8  A    between atoms: C40_26  and  C42_27 
REMARK    9  A    between atoms: C40_26  and  C57_35 
REMARK   10  A    between atoms: C42_27  and  C45_28 
REMARK   11  A    between atoms: C35_38  and  C57_35 
REMARK   12  A    between atoms: C57_35  and  O40_36 
REMARK       I    between atoms: C35_38  and  N36_40 
REMARK   13  A    between atoms: C13_42  and  N36_40 
REMARK   14  A    between atoms: C13_42  and  C14_43 
ROOT
HETATM    1  C36 O6K A 502       9.669  -1.597  21.982  1.00 40.96     0.241 C 
HETATM    2  O37 O6K A 502       9.323  -2.540  21.270  1.00 39.67    -0.271 OA
HETATM    3  N38 O6K A 502      10.063  -0.412  21.487  1.00 36.33    -0.352 N 
ATOM      4  H38 O6K A 502      10.291   0.338  22.139  1.00  0.00     0.163 HD
ENDROOT
BRANCH   3   5
HETATM    5  C40 O6K A 502      10.178  -0.157  20.084  1.00 37.49     0.123 C 
BRANCH   5   6
HETATM    6  C42 O6K A 502       8.986   0.661  19.493  1.00 32.82     0.042 C 
BRANCH   6   7
HETATM    7  C45 O6K A 502       8.697   0.139  18.117  1.00 30.60     0.081 C 
HETATM    8  C54 O6K A 502       9.135  -1.313  17.892  1.00 33.95     0.034 C 
HETATM    9  C51 O6K A 502       9.340  -1.427  16.387  1.00 39.28     0.123 C 
HETATM   10  N49 O6K A 502       9.716  -0.055  16.027  1.00 37.90    -0.361 N 
HETATM   11  C47 O6K A 502       9.350   0.849  16.951  1.00 34.72     0.221 C 
ATOM     12  H49 O6K A 502      10.204   0.187  15.165  1.00  0.00     0.162 HD
HETATM   13  O48 O6K A 502       9.457   2.070  16.890  1.00 30.70    -0.273 OA
ENDBRANCH   6   7
ENDBRANCH   5   6
BRANCH   5  14
HETATM   14  C57 O6K A 502      11.582   0.435  20.033  1.00 43.89     0.232 C 
BRANCH  14  15
HETATM   15  C35 O6K A 502      11.505   1.899  20.199  1.00 48.12     0.248 C 
HETATM   16  N36 O6K A 502      11.799   2.574  19.050  1.00 55.97    -0.355 N 
ATOM     17  H36 O6K A 502      12.002   2.017  18.219  1.00  0.00     0.162 HD
HETATM   18  O41 O6K A 502      11.245   2.311  21.314  1.00 36.04    -0.271 OA
BRANCH  16  19
HETATM   19  C13 O6K A 502      11.845   4.029  18.909  1.00 57.51     0.161 C 
BRANCH  19  20
HETATM   20  C14 O6K A 502      13.261   4.555  19.111  1.00 59.70    -0.041 A 
HETATM   21  C15 O6K A 502      14.344   3.668  19.035  1.00 63.38     0.009 A 
HETATM   22  C23 O6K A 502      15.657   4.119  19.202  1.00 58.15     0.001 A 
HETATM   23  C25 O6K A 502      15.895   5.472  19.448  1.00 61.49     0.000 A 
HETATM   24  C26 O6K A 502      14.818   6.364  19.525  1.00 61.74     0.001 A 
HETATM   25  C28 O6K A 502      13.509   5.906  19.358  1.00 55.48     0.009 A 
ENDBRANCH  19  20
ENDBRANCH  16  19
ENDBRANCH  14  15
BRANCH  14  26
HETATM   26  O40 O6K A 502      12.282   0.298  18.739  1.00 40.57    -0.384 OA
ATOM     27  H40 O6K A 502      11.652   0.659  18.126  1.00  0.00     0.210 HD
ENDBRANCH  14  26
ENDBRANCH   5  14
ENDBRANCH   3   5
BRANCH   1  28
HETATM   28  C20 O6K A 502       9.673  -1.745  23.480  1.00 36.49     0.184 C 
BRANCH  28  29
HETATM   29  N15 O6K A 502       9.521  -0.389  24.009  1.00 40.73    -0.309 N 
HETATM   30  C16 O6K A 502       8.327   0.141  24.367  1.00 45.88     0.095 A 
HETATM   31  C17 O6K A 502       8.189   1.448  24.821  1.00 41.48     0.020 A 
HETATM   32  C18 O6K A 502       9.296   2.265  24.937  1.00 44.13     0.037 A 
HETATM   33  C19 O6K A 502      10.568   1.781  24.576  1.00 40.01     0.105 A 
HETATM   34  N23 O6K A 502      11.721   2.489  24.609  1.00 44.38    -0.298 N 
HETATM   35  C21 O6K A 502      10.685   0.403  24.071  1.00 42.88     0.275 A 
HETATM   36  C24 O6K A 502      11.865   3.793  24.865  1.00 48.13     0.366 C 
ATOM     37  H23 O6K A 502      12.577   1.969  24.415  1.00  0.00     0.171 HD
HETATM   38  O26 O6K A 502      10.978   4.544  25.239  1.00 55.82    -0.238 OA
HETATM   39  O22 O6K A 502      11.803  -0.067  23.698  1.00 40.80    -0.265 OA
BRANCH  36  40
HETATM   40  O25 O6K A 502      13.213   4.296  24.680  1.00 49.37    -0.294 OA
BRANCH  40  41
HETATM   41  C27 O6K A 502      13.790   4.709  23.427  1.00 55.84     0.061 C 
HETATM   42  C31 O6K A 502      14.983   5.631  23.735  1.00 51.10     0.046 C 
HETATM   43  C33 O6K A 502      12.755   5.442  22.563  1.00 59.65     0.046 C 
HETATM   44  C32 O6K A 502      14.240   3.461  22.653  1.00 50.94     0.046 C 
ENDBRANCH  40  41
ENDBRANCH  36  40
ENDBRANCH  28  29
BRANCH  28  45
HETATM   45  C22 O6K A 502       8.588  -2.724  23.950  1.00 35.21     0.040 C 
BRANCH  45  46
HETATM   46  C29 O6K A 502       9.093  -3.590  25.106  1.00 36.38    -0.012 A 
HETATM   47  C34 O6K A 502       8.090  -4.139  26.117  1.00 36.80     0.005 A 
HETATM   48  C30 O6K A 502       8.636  -5.056  25.030  1.00 34.06     0.005 A 
ENDBRANCH  45  46
ENDBRANCH  28  45
ENDBRANCH   1  28
TORSDOF 14
ENDMDL
