MODEL 1
REMARK VINA RESULT:      -9.2      0.000      0.000
REMARK  14 active torsions:
REMARK  status: ('A' for Active; 'I' for Inactive)
REMARK       I    between atoms: C24_2  and  N23_8 
REMARK    1  A    between atoms: C24_2  and  O25_3 
REMARK    2  A    between atoms: C27_4  and  O25_3 
REMARK    3  A    between atoms: C20_17  and  N15_16 
REMARK    4  A    between atoms: C20_17  and  C36_22 
REMARK    5  A    between atoms: C20_17  and  C22_18 
REMARK    6  A    between atoms: C22_18  and  C29_19 
REMARK       I    between atoms: C36_22  and  N38_24 
REMARK    7  A    between atoms: C40_26  and  N38_24 
REMARK    8  A    between atoms: C40_26  and  C42_27 
REMARK    9  A    between atoms: C40_26  and  C57_35 
REMARK   10  A    between atoms: C42_27  and  C45_28 
REMARK   11  A    between atoms: C35_38  and  C57_35 
REMARK   12  A    between atoms: C57_35  and  O40_36 
REMARK       I    between atoms: C35_38  and  N36_40 
REMARK   13  A    between atoms: C13_42  and  N36_40 
REMARK   14  A    between atoms: C13_42  and  C14_43 
ROOT
HETATM    1  C36 O6K A 502       9.803  -0.454  21.000  1.00 40.96     0.241 C 
HETATM    2  O37 O6K A 502       9.430  -1.615  21.173  1.00 39.67    -0.271 OA
HETATM    3  N38 O6K A 502       9.786   0.472  21.973  1.00 36.33    -0.352 N 
ATOM      4  H38 O6K A 502      10.155   1.401  21.769  1.00  0.00     0.163 HD
ENDROOT
BRANCH   3   5
HETATM    5  C40 O6K A 502       9.274   0.212  23.283  1.00 37.49     0.123 C 
BRANCH   5   6
HETATM    6  C42 O6K A 502      10.288  -0.512  24.224  1.00 32.82     0.042 C 
BRANCH   6   7
HETATM    7  C45 O6K A 502       9.562  -1.612  24.938  1.00 30.60     0.081 C 
HETATM    8  C54 O6K A 502       8.743  -2.524  24.017  1.00 33.95     0.034 C 
HETATM    9  C51 O6K A 502       7.659  -3.109  24.914  1.00 39.28     0.123 C 
HETATM   10  N49 O6K A 502       7.487  -2.047  25.912  1.00 37.90    -0.361 N 
HETATM   11  C47 O6K A 502       8.536  -1.211  25.976  1.00 34.72     0.221 C 
ATOM     12  H49 O6K A 502       6.656  -1.954  26.496  1.00  0.00     0.162 HD
HETATM   13  O48 O6K A 502       8.712  -0.285  26.763  1.00 30.70    -0.273 OA
ENDBRANCH   6   7
ENDBRANCH   5   6
BRANCH   5  14
HETATM   14  C57 O6K A 502       8.778   1.604  23.659  1.00 43.89     0.232 C 
BRANCH  14  15
HETATM   15  C35 O6K A 502       9.923   2.446  24.053  1.00 48.12     0.248 C 
HETATM   16  N36 O6K A 502      10.811   2.635  23.034  1.00 55.97    -0.355 N 
ATOM     17  H36 O6K A 502      10.583   2.218  22.132  1.00  0.00     0.162 HD
HETATM   18  O41 O6K A 502       9.958   2.816  25.212  1.00 36.04    -0.271 OA
BRANCH  16  19
HETATM   19  C13 O6K A 502      12.061   3.388  23.127  1.00 57.51     0.161 C 
BRANCH  19  20
HETATM   20  C14 O6K A 502      12.116   4.493  22.080  1.00 59.70    -0.041 A 
HETATM   21  C15 O6K A 502      11.078   4.609  21.144  1.00 63.38     0.009 A 
HETATM   22  C23 O6K A 502      11.090   5.620  20.178  1.00 58.15     0.001 A 
HETATM   23  C25 O6K A 502      12.149   6.527  20.142  1.00 61.49     0.000 A 
HETATM   24  C26 O6K A 502      13.189   6.418  21.074  1.00 61.74     0.001 A 
HETATM   25  C28 O6K A 502      13.171   5.405  22.036  1.00 55.48     0.009 A 
ENDBRANCH  19  20
ENDBRANCH  16  19
ENDBRANCH  14  15
BRANCH  14  26
HETATM   26  O40 O6K A 502       7.909   1.668  24.852  1.00 40.57    -0.384 OA
ATOM     27  H40 O6K A 502       7.047   1.505  24.487  1.00  0.00     0.210 HD
ENDBRANCH  14  26
ENDBRANCH   5  14
ENDBRANCH   3   5
BRANCH   1  28
HETATM   28  C20 O6K A 502      10.296  -0.013  19.647  1.00 36.49     0.184 C 
BRANCH  28  29
HETATM   29  N15 O6K A 502      11.639   0.522  19.876  1.00 40.73    -0.309 N 
HETATM   30  C16 O6K A 502      12.513  -0.014  20.762  1.00 45.88     0.095 A 
HETATM   31  C17 O6K A 502      13.768   0.534  21.006  1.00 41.48     0.020 A 
HETATM   32  C18 O6K A 502      14.180   1.661  20.325  1.00 44.13     0.037 A 
HETATM   33  C19 O6K A 502      13.319   2.273  19.394  1.00 40.01     0.105 A 
HETATM   34  N23 O6K A 502      13.589   3.398  18.690  1.00 44.38    -0.298 N 
HETATM   35  C21 O6K A 502      11.984   1.693  19.173  1.00 42.88     0.275 A 
HETATM   36  C24 O6K A 502      14.646   4.205  18.824  1.00 48.13     0.366 C 
ATOM     37  H23 O6K A 502      12.907   3.660  17.978  1.00  0.00     0.171 HD
HETATM   38  O26 O6K A 502      15.619   3.987  19.529  1.00 55.82    -0.238 OA
HETATM   39  O22 O6K A 502      11.160   2.228  18.372  1.00 40.80    -0.265 OA
BRANCH  36  40
HETATM   40  O25 O6K A 502      14.581   5.417  18.029  1.00 49.37    -0.294 OA
BRANCH  40  41
HETATM   41  C27 O6K A 502      15.692   6.044  17.361  1.00 55.84     0.061 C 
HETATM   42  C31 O6K A 502      16.464   4.953  16.599  1.00 51.10     0.046 C 
HETATM   43  C33 O6K A 502      16.611   6.747  18.370  1.00 59.65     0.046 C 
HETATM   44  C32 O6K A 502      15.153   7.115  16.401  1.00 50.94     0.046 C 
ENDBRANCH  40  41
ENDBRANCH  36  40
ENDBRANCH  28  29
BRANCH  28  45
HETATM   45  C22 O6K A 502      10.246  -1.163  18.631  1.00 35.21     0.040 C 
BRANCH  45  46
HETATM   46  C29 O6K A 502       9.092  -0.973  17.645  1.00 36.38    -0.012 A 
HETATM   47  C34 O6K A 502       9.360  -0.287  16.309  1.00 36.80     0.005 A 
HETATM   48  C30 O6K A 502       9.230  -1.804  16.359  1.00 34.06     0.005 A 
ENDBRANCH  45  46
ENDBRANCH  28  45
ENDBRANCH   1  28
TORSDOF 14
ENDMDL
MODEL 2
REMARK VINA RESULT:      -9.1      4.441      6.888
REMARK  14 active torsions:
REMARK  status: ('A' for Active; 'I' for Inactive)
REMARK       I    between atoms: C24_2  and  N23_8 
REMARK    1  A    between atoms: C24_2  and  O25_3 
REMARK    2  A    between atoms: C27_4  and  O25_3 
REMARK    3  A    between atoms: C20_17  and  N15_16 
REMARK    4  A    between atoms: C20_17  and  C36_22 
REMARK    5  A    between atoms: C20_17  and  C22_18 
REMARK    6  A    between atoms: C22_18  and  C29_19 
REMARK       I    between atoms: C36_22  and  N38_24 
REMARK    7  A    between atoms: C40_26  and  N38_24 
REMARK    8  A    between atoms: C40_26  and  C42_27 
REMARK    9  A    between atoms: C40_26  and  C57_35 
REMARK   10  A    between atoms: C42_27  and  C45_28 
REMARK   11  A    between atoms: C35_38  and  C57_35 
REMARK   12  A    between atoms: C57_35  and  O40_36 
REMARK       I    between atoms: C35_38  and  N36_40 
REMARK   13  A    between atoms: C13_42  and  N36_40 
REMARK   14  A    between atoms: C13_42  and  C14_43 
ROOT
HETATM    1  C36 O6K A 502      10.261  -2.100  21.501  1.00 40.96     0.241 C 
HETATM    2  O37 O6K A 502       9.076  -2.425  21.572  1.00 39.67    -0.271 OA
HETATM    3  N38 O6K A 502      11.255  -2.840  22.020  1.00 36.33    -0.352 N 
ATOM      4  H38 O6K A 502      12.218  -2.530  21.881  1.00  0.00     0.163 HD
ENDROOT
BRANCH   3   5
HETATM    5  C40 O6K A 502      11.023  -4.042  22.758  1.00 37.49     0.123 C 
BRANCH   5   6
HETATM    6  C42 O6K A 502      11.816  -5.276  22.218  1.00 32.82     0.042 C 
BRANCH   6   7
HETATM    7  C45 O6K A 502      11.075  -5.828  21.038  1.00 30.60     0.081 C 
HETATM    8  C54 O6K A 502      10.637  -7.289  21.201  1.00 33.95     0.034 C 
HETATM    9  C51 O6K A 502      10.501  -7.814  19.776  1.00 39.28     0.123 C 
HETATM   10  N49 O6K A 502      11.480  -6.991  19.056  1.00 37.90    -0.361 N 
HETATM   11  C47 O6K A 502      11.803  -5.864  19.712  1.00 34.72     0.221 C 
ATOM     12  H49 O6K A 502      11.874  -7.249  18.151  1.00  0.00     0.162 HD
HETATM   13  O48 O6K A 502      12.527  -4.951  19.325  1.00 30.70    -0.273 OA
ENDBRANCH   6   7
ENDBRANCH   5   6
BRANCH   5  14
HETATM   14  C57 O6K A 502      11.297  -3.547  24.173  1.00 43.89     0.232 C 
BRANCH  14  15
HETATM   15  C35 O6K A 502      10.042  -3.550  24.949  1.00 48.12     0.248 C 
HETATM   16  N36 O6K A 502       9.318  -2.406  24.779  1.00 55.97    -0.355 N 
ATOM     17  H36 O6K A 502       9.690  -1.708  24.135  1.00  0.00     0.162 HD
HETATM   18  O41 O6K A 502       9.837  -4.519  25.656  1.00 36.04    -0.271 OA
BRANCH  16  19
HETATM   19  C13 O6K A 502       8.052  -2.097  25.443  1.00 57.51     0.161 C 
BRANCH  19  20
HETATM   20  C14 O6K A 502       7.842  -0.592  25.554  1.00 59.70    -0.041 A 
HETATM   21  C15 O6K A 502       6.846   0.024  24.783  1.00 63.38     0.009 A 
HETATM   22  C23 O6K A 502       6.617   1.400  24.870  1.00 58.15     0.001 A 
HETATM   23  C25 O6K A 502       7.391   2.175  25.735  1.00 61.49     0.000 A 
HETATM   24  C26 O6K A 502       8.388   1.566  26.508  1.00 61.74     0.001 A 
HETATM   25  C28 O6K A 502       8.611   0.190  26.416  1.00 55.48     0.009 A 
ENDBRANCH  19  20
ENDBRANCH  16  19
ENDBRANCH  14  15
BRANCH  14  26
HETATM   26  O40 O6K A 502      11.734  -2.139  24.280  1.00 40.57    -0.384 OA
ATOM     27  H40 O6K A 502      11.340  -1.864  25.099  1.00  0.00     0.210 HD
ENDBRANCH  14  26
ENDBRANCH   5  14
ENDBRANCH   3   5
BRANCH   1  28
HETATM   28  C20 O6K A 502      10.652  -0.816  20.819  1.00 36.49     0.184 C 
BRANCH  28  29
HETATM   29  N15 O6K A 502      10.631  -1.111  19.386  1.00 40.73    -0.309 N 
HETATM   30  C16 O6K A 502       9.551  -0.893  18.597  1.00 45.88     0.095 A 
HETATM   31  C17 O6K A 502       9.528  -1.225  17.246  1.00 41.48     0.020 A 
HETATM   32  C18 O6K A 502      10.636  -1.788  16.647  1.00 44.13     0.037 A 
HETATM   33  C19 O6K A 502      11.790  -2.049  17.411  1.00 40.01     0.105 A 
HETATM   34  N23 O6K A 502      12.925  -2.628  16.954  1.00 44.38    -0.298 N 
HETATM   35  C21 O6K A 502      11.783  -1.716  18.845  1.00 42.88     0.275 A 
HETATM   36  C24 O6K A 502      13.131  -3.170  15.749  1.00 48.13     0.366 C 
ATOM     37  H23 O6K A 502      13.712  -2.655  17.602  1.00  0.00     0.171 HD
HETATM   38  O26 O6K A 502      12.355  -3.119  14.807  1.00 55.82    -0.238 OA
HETATM   39  O22 O6K A 502      12.785  -1.964  19.582  1.00 40.80    -0.265 OA
BRANCH  36  40
HETATM   40  O25 O6K A 502      14.405  -3.849  15.605  1.00 49.37    -0.294 OA
BRANCH  40  41
HETATM   41  C27 O6K A 502      15.588  -3.295  15.001  1.00 55.84     0.061 C 
HETATM   42  C31 O6K A 502      16.609  -3.023  16.120  1.00 51.10     0.046 C 
HETATM   43  C33 O6K A 502      15.262  -2.000  14.246  1.00 59.65     0.046 C 
HETATM   44  C32 O6K A 502      16.141  -4.301  13.979  1.00 50.94     0.046 C 
ENDBRANCH  40  41
ENDBRANCH  36  40
ENDBRANCH  28  29
BRANCH  28  45
HETATM   45  C22 O6K A 502       9.730   0.341  21.232  1.00 35.21     0.040 C 
BRANCH  45  46
HETATM   46  C29 O6K A 502       9.833   0.615  22.734  1.00 36.38    -0.012 A 
HETATM   47  C34 O6K A 502      11.104   1.253  23.288  1.00 36.80     0.005 A 
HETATM   48  C30 O6K A 502       9.859   2.110  23.093  1.00 34.06     0.005 A 
ENDBRANCH  45  46
ENDBRANCH  28  45
ENDBRANCH   1  28
TORSDOF 14
ENDMDL
MODEL 3
REMARK VINA RESULT:      -9.1      3.184      8.302
REMARK  14 active torsions:
REMARK  status: ('A' for Active; 'I' for Inactive)
REMARK       I    between atoms: C24_2  and  N23_8 
REMARK    1  A    between atoms: C24_2  and  O25_3 
REMARK    2  A    between atoms: C27_4  and  O25_3 
REMARK    3  A    between atoms: C20_17  and  N15_16 
REMARK    4  A    between atoms: C20_17  and  C36_22 
REMARK    5  A    between atoms: C20_17  and  C22_18 
REMARK    6  A    between atoms: C22_18  and  C29_19 
REMARK       I    between atoms: C36_22  and  N38_24 
REMARK    7  A    between atoms: C40_26  and  N38_24 
REMARK    8  A    between atoms: C40_26  and  C42_27 
REMARK    9  A    between atoms: C40_26  and  C57_35 
REMARK   10  A    between atoms: C42_27  and  C45_28 
REMARK   11  A    between atoms: C35_38  and  C57_35 
REMARK   12  A    between atoms: C57_35  and  O40_36 
REMARK       I    between atoms: C35_38  and  N36_40 
REMARK   13  A    between atoms: C13_42  and  N36_40 
REMARK   14  A    between atoms: C13_42  and  C14_43 
ROOT
HETATM    1  C36 O6K A 502      10.609   0.434  22.196  1.00 40.96     0.241 C 
HETATM    2  O37 O6K A 502      11.658   0.032  22.702  1.00 39.67    -0.271 OA
HETATM    3  N38 O6K A 502      10.575   1.180  21.080  1.00 36.33    -0.352 N 
ATOM      4  H38 O6K A 502       9.667   1.436  20.691  1.00  0.00     0.163 HD
ENDROOT
BRANCH   3   5
HETATM    5  C40 O6K A 502      11.757   1.630  20.411  1.00 37.49     0.123 C 
BRANCH   5   6
HETATM    6  C42 O6K A 502      11.891   1.105  18.947  1.00 32.82     0.042 C 
BRANCH   6   7
HETATM    7  C45 O6K A 502      10.526   0.726  18.458  1.00 30.60     0.081 C 
HETATM    8  C54 O6K A 502      10.383  -0.754  18.081  1.00 33.95     0.034 C 
HETATM    9  C51 O6K A 502       9.234  -0.790  17.080  1.00 39.28     0.123 C 
HETATM   10  N49 O6K A 502       9.327   0.538  16.465  1.00 37.90    -0.361 N 
HETATM   11  C47 O6K A 502      10.013   1.418  17.214  1.00 34.72     0.221 C 
ATOM     12  H49 O6K A 502       8.913   0.770  15.562  1.00  0.00     0.162 HD
HETATM   13  O48 O6K A 502      10.185   2.614  16.998  1.00 30.70    -0.273 OA
ENDBRANCH   6   7
ENDBRANCH   5   6
BRANCH   5  14
HETATM   14  C57 O6K A 502      11.646   3.132  20.653  1.00 43.89     0.232 C 
BRANCH  14  15
HETATM   15  C35 O6K A 502      12.840   3.603  21.382  1.00 48.12     0.248 C 
HETATM   16  N36 O6K A 502      12.690   4.868  21.870  1.00 55.97    -0.355 N 
ATOM     17  H36 O6K A 502      11.793   5.327  21.713  1.00  0.00     0.162 HD
HETATM   18  O41 O6K A 502      13.794   2.848  21.415  1.00 36.04    -0.271 OA
BRANCH  16  19
HETATM   19  C13 O6K A 502      13.710   5.621  22.600  1.00 57.51     0.161 C 
BRANCH  19  20
HETATM   20  C14 O6K A 502      13.640   5.334  24.095  1.00 59.70    -0.041 A 
HETATM   21  C15 O6K A 502      14.812   5.385  24.862  1.00 63.38     0.009 A 
HETATM   22  C23 O6K A 502      14.783   5.140  26.238  1.00 58.15     0.001 A 
HETATM   23  C25 O6K A 502      13.570   4.840  26.859  1.00 61.49     0.000 A 
HETATM   24  C26 O6K A 502      12.394   4.789  26.099  1.00 61.74     0.001 A 
HETATM   25  C28 O6K A 502      12.432   5.034  24.724  1.00 55.48     0.009 A 
ENDBRANCH  19  20
ENDBRANCH  16  19
ENDBRANCH  14  15
BRANCH  14  26
HETATM   26  O40 O6K A 502      10.543   3.553  21.541  1.00 40.57    -0.384 OA
ATOM     27  H40 O6K A 502      10.278   2.732  21.940  1.00  0.00     0.210 HD
ENDBRANCH  14  26
ENDBRANCH   5  14
ENDBRANCH   3   5
BRANCH   1  28
HETATM   28  C20 O6K A 502       9.287   0.102  22.835  1.00 36.49     0.184 C 
BRANCH  28  29
HETATM   29  N15 O6K A 502       9.552  -1.036  23.716  1.00 40.73    -0.309 N 
HETATM   30  C16 O6K A 502       9.951  -0.904  25.004  1.00 45.88     0.095 A 
HETATM   31  C17 O6K A 502      10.248  -1.993  25.816  1.00 41.48     0.020 A 
HETATM   32  C18 O6K A 502      10.130  -3.279  25.328  1.00 44.13     0.037 A 
HETATM   33  C19 O6K A 502       9.726  -3.489  23.995  1.00 40.01     0.105 A 
HETATM   34  N23 O6K A 502       9.606  -4.693  23.387  1.00 44.38    -0.298 N 
HETATM   35  C21 O6K A 502       9.444  -2.320  23.145  1.00 42.88     0.275 A 
HETATM   36  C24 O6K A 502       9.956  -5.887  23.876  1.00 48.13     0.366 C 
ATOM     37  H23 O6K A 502       9.203  -4.688  22.450  1.00  0.00     0.171 HD
HETATM   38  O26 O6K A 502      10.333  -6.102  25.017  1.00 55.82    -0.238 OA
HETATM   39  O22 O6K A 502       9.113  -2.457  21.929  1.00 40.80    -0.265 OA
BRANCH  36  40
HETATM   40  O25 O6K A 502       9.844  -6.980  22.928  1.00 49.37    -0.294 OA
BRANCH  40  41
HETATM   41  C27 O6K A 502      10.941  -7.611  22.242  1.00 55.84     0.061 C 
HETATM   42  C31 O6K A 502      10.558  -7.745  20.758  1.00 51.10     0.046 C 
HETATM   43  C33 O6K A 502      11.244  -8.990  22.844  1.00 59.65     0.046 C 
HETATM   44  C32 O6K A 502      12.198  -6.744  22.413  1.00 50.94     0.046 C 
ENDBRANCH  40  41
ENDBRANCH  36  40
ENDBRANCH  28  29
BRANCH  28  45
HETATM   45  C22 O6K A 502       8.690   1.321  23.552  1.00 35.21     0.040 C 
BRANCH  45  46
HETATM   46  C29 O6K A 502       7.683   0.890  24.622  1.00 36.38    -0.012 A 
HETATM   47  C34 O6K A 502       7.199   1.915  25.642  1.00 36.80     0.005 A 
HETATM   48  C30 O6K A 502       6.299   1.542  24.471  1.00 34.06     0.005 A 
ENDBRANCH  45  46
ENDBRANCH  28  45
ENDBRANCH   1  28
TORSDOF 14
ENDMDL
