REMARK  14 active torsions:
REMARK  status: ('A' for Active; 'I' for Inactive)
REMARK       I    between atoms: C24_2  and  N23_8 
REMARK    1  A    between atoms: C24_2  and  O25_3 
REMARK    2  A    between atoms: C27_4  and  O25_3 
REMARK    3  A    between atoms: C20_17  and  N15_16 
REMARK    4  A    between atoms: C20_17  and  C36_22 
REMARK    5  A    between atoms: C20_17  and  C22_18 
REMARK    6  A    between atoms: C22_18  and  C29_19 
REMARK       I    between atoms: C36_22  and  N38_24 
REMARK    7  A    between atoms: C40_26  and  N38_24 
REMARK    8  A    between atoms: C40_26  and  C42_27 
REMARK    9  A    between atoms: C40_26  and  C57_35 
REMARK   10  A    between atoms: C42_27  and  C45_28 
REMARK   11  A    between atoms: C35_38  and  C57_35 
REMARK   12  A    between atoms: C57_35  and  O40_36 
REMARK       I    between atoms: C35_38  and  N36_40 
REMARK   13  A    between atoms: C13_42  and  N36_40 
REMARK   14  A    between atoms: C13_42  and  C14_43 
ROOT
HETATM    1  C36 O6K A 502       9.908   0.711  21.576  1.00 40.96     0.241 C 
HETATM    2  O37 O6K A 502      11.128   0.554  21.519  1.00 39.67    -0.271 OA
HETATM    3  N38 O6K A 502       9.195   1.270  20.584  1.00 36.33    -0.352 N 
ATOM      4  H38 O6K A 502       8.181   1.324  20.682  1.00  0.00     0.163 HD
ENDROOT
BRANCH   3   5
HETATM    5  C40 O6K A 502       9.796   1.792  19.396  1.00 37.49     0.123 C 
BRANCH   5   6
HETATM    6  C42 O6K A 502       9.250   1.152  18.080  1.00 32.82     0.042 C 
BRANCH   6   7
HETATM    7  C45 O6K A 502       9.773  -0.250  17.989  1.00 30.60     0.081 C 
HETATM    8  C54 O6K A 502      11.278  -0.341  17.708  1.00 33.95     0.034 C 
HETATM    9  C51 O6K A 502      11.469  -1.705  17.056  1.00 39.28     0.123 C 
HETATM   10  N49 O6K A 502      10.173  -1.911  16.400  1.00 37.90    -0.361 N 
HETATM   11  C47 O6K A 502       9.197  -1.141  16.910  1.00 34.72     0.221 C 
ATOM     12  H49 O6K A 502      10.028  -2.571  15.636  1.00  0.00     0.162 HD
HETATM   13  O48 O6K A 502       8.004  -1.151  16.621  1.00 30.70    -0.273 OA
ENDBRANCH   6   7
ENDBRANCH   5   6
BRANCH   5  14
HETATM   14  C57 O6K A 502       9.601   3.286  19.630  1.00 43.89     0.232 C 
BRANCH  14  15
HETATM   15  C35 O6K A 502      10.554   4.044  18.797  1.00 48.12     0.248 C 
HETATM   16  N36 O6K A 502      11.356   4.866  19.534  1.00 55.97    -0.355 N 
ATOM     17  H36 O6K A 502      11.239   4.849  20.547  1.00  0.00     0.162 HD
HETATM   18  O41 O6K A 502      10.478   3.883  17.593  1.00 36.04    -0.271 OA
BRANCH  16  19
HETATM   19  C13 O6K A 502      12.370   5.770  18.992  1.00 57.51     0.161 C 
BRANCH  19  20
HETATM   20  C14 O6K A 502      13.730   5.087  18.915  1.00 59.70    -0.041 A 
HETATM   21  C15 O6K A 502      14.805   5.757  18.314  1.00 63.38     0.009 A 
HETATM   22  C23 O6K A 502      16.070   5.166  18.238  1.00 58.15     0.001 A 
HETATM   23  C25 O6K A 502      16.267   3.890  18.768  1.00 61.49     0.000 A 
HETATM   24  C26 O6K A 502      15.198   3.215  19.371  1.00 61.74     0.001 A 
HETATM   25  C28 O6K A 502      13.937   3.812  19.442  1.00 55.48     0.009 A 
ENDBRANCH  19  20
ENDBRANCH  16  19
ENDBRANCH  14  15
BRANCH  14  26
HETATM   26  O40 O6K A 502       9.919   3.762  20.992  1.00 40.57    -0.384 OA
ATOM     27  H40 O6K A 502       9.305   3.274  21.528  1.00  0.00     0.210 HD
ENDBRANCH  14  26
ENDBRANCH   5  14
ENDBRANCH   3   5
BRANCH   1  28
HETATM   28  C20 O6K A 502       9.148   0.279  22.802  1.00 36.49     0.184 C 
BRANCH  28  29
HETATM   29  N15 O6K A 502       9.874  -0.879  23.325  1.00 40.73    -0.309 N 
HETATM   30  C16 O6K A 502      10.667  -0.827  24.422  1.00 45.88     0.095 A 
HETATM   31  C17 O6K A 502      11.391  -1.923  24.880  1.00 41.48     0.020 A 
HETATM   32  C18 O6K A 502      11.312  -3.134  24.223  1.00 44.13     0.037 A 
HETATM   33  C19 O6K A 502      10.511  -3.257  23.071  1.00 40.01     0.105 A 
HETATM   34  N23 O6K A 502      10.377  -4.374  22.318  1.00 44.38    -0.298 N 
HETATM   35  C21 O6K A 502       9.776  -2.076  22.588  1.00 42.88     0.275 A 
HETATM   36  C24 O6K A 502      11.055  -5.520  22.439  1.00 48.13     0.366 C 
ATOM     37  H23 O6K A 502       9.680  -4.337  21.574  1.00  0.00     0.171 HD
HETATM   38  O26 O6K A 502      11.831  -5.792  23.341  1.00 55.82    -0.238 OA
HETATM   39  O22 O6K A 502       9.071  -2.127  21.535  1.00 40.80    -0.265 OA
BRANCH  36  40
HETATM   40  O25 O6K A 502      10.794  -6.486  21.388  1.00 49.37    -0.294 OA
BRANCH  40  41
HETATM   41  C27 O6K A 502      11.592  -7.649  21.100  1.00 55.84     0.061 C 
HETATM   42  C31 O6K A 502      11.566  -8.561  22.339  1.00 51.10     0.046 C 
HETATM   43  C33 O6K A 502      13.034  -7.252  20.756  1.00 59.65     0.046 C 
HETATM   44  C32 O6K A 502      11.003  -8.363  19.874  1.00 50.94     0.046 C 
ENDBRANCH  40  41
ENDBRANCH  36  40
ENDBRANCH  28  29
BRANCH  28  45
HETATM   45  C22 O6K A 502       9.003   1.431  23.806  1.00 35.21     0.040 C 
BRANCH  45  46
HETATM   46  C29 O6K A 502       8.204   0.991  25.035  1.00 36.38    -0.012 A 
HETATM   47  C34 O6K A 502       7.462   2.042  25.855  1.00 36.80     0.005 A 
HETATM   48  C30 O6K A 502       6.684   1.164  24.883  1.00 34.06     0.005 A 
ENDBRANCH  45  46
ENDBRANCH  28  45
ENDBRANCH   1  28
TORSDOF 14
