@<TRIPOS>MOLECULE
model.pdb
99 101 1 0 0
SMALL
AMBER ff14SB


@<TRIPOS>ATOM
      1 C01       -12.4670   15.9640   73.0960 C.3       1 LIG   -0.0627
      2 C02       -12.9950   15.3880   71.7800 C.3       1 LIG   -0.0449
      3 C03       -13.8380   14.0960   72.0290 C.3       1 LIG   -0.0627
      4 C04       -11.8310   15.1500   70.7670 C.3       1 LIG   -0.0235
      5 C05       -12.1490   14.0970   69.7190 C.3       1 LIG    0.0995
      6 C06       -11.6060   14.5460   68.3340 C.2       1 LIG    0.2324
      7 C08       -12.0040   15.4120   65.9580 C.3       1 LIG    0.0236
      8 C09       -12.4930   14.4450   64.8830 C.3       1 LIG   -0.0242
      9 C10       -11.8410   12.9960   65.0590 C.3       1 LIG    0.0227
     10 C11       -12.3850   12.1060   64.2900 C.3       1 LIG    0.1236
     11 C13        -9.9370   12.0110   63.9120 C.2       1 LIG   -0.0133
     12 C14       -10.2430   13.0750   64.6910 C.2       1 LIG   -0.0634
     13 C16       -12.5270   16.7920   65.6420 C.3       1 LIG   -0.0253
     14 C17       -11.4330   17.8220   65.2960 C.3       1 LIG    0.0355
     15 C18       -10.2300   17.7840   66.2710 C.2       1 LIG    0.2612
     16 C20        -7.8890   17.6160   66.7130 C.3       1 LIG    0.0814
     17 C21        -7.1440   18.9630   66.9160 C.ar      1 LIG   -0.0217
     18 C22        -5.8000   18.9610   67.2780 C.ar      1 LIG   -0.0567
     19 C23        -5.1250   20.1680   67.4620 C.ar      1 LIG   -0.0619
     20 C24        -5.7990   21.3810   67.2850 C.ar      1 LIG   -0.0622
     21 C25        -7.1410   21.3790   66.9270 C.ar      1 LIG   -0.0619
     22 C26        -7.8200   20.1750   66.7400 C.ar      1 LIG   -0.0567
     23 C30       -11.6840   11.6140   69.2840 C.2       1 LIG    0.2330
     24 C31       -10.9550   10.3610   69.6800 C.3       1 LIG    0.1015
     25 C32       -10.0290    9.9060   68.5150 C.3       1 LIG   -0.0197
     26 C33        -9.1410    8.7020   68.9670 C.3       1 LIG   -0.0605
     27 C34        -9.1500   11.0860   67.9990 C.3       1 LIG   -0.0605
     28 C36       -12.1000    8.7640   71.2610 C.2       1 LIG    0.2325
     29 C37       -13.1640    7.6450   71.4850 C.3       1 LIG    0.0968
     30 C38       -14.4110    8.2250   72.1060 C.3       1 LIG   -0.0378
     31 C40       -11.4720    5.8150   71.8760 C.2       1 LIG    0.2646
     32 C41       -10.8470    4.7530   72.7960 C.ar      1 LIG    0.1557
     33 C44        -9.9270    2.8690   73.6340 C.ar      1 LIG    0.0842
     34 C45        -9.3510    1.4670   73.8030 C.3       1 LIG   -0.0151
     35 C46       -10.4270    3.4310   72.4380 C.ar      1 LIG    0.0001
     36 N07       -12.5410   14.9950   67.2680 N.am      1 LIG   -0.3109
     37 N12       -11.2380   11.5470   63.3040 N.3       1 LIG   -0.3255
     38 N29       -11.4640   12.8700   70.0800 N.am      1 LIG   -0.3021
     39 N35       -11.9430    9.3170   69.9410 N.am      1 LIG   -0.3018
     40 N39       -12.5850    6.6390   72.3560 N.am      1 LIG   -0.2985
     41 N42       -10.5790    4.8790   74.0990 N.ar      1 LIG   -0.1237
     42 O15       -13.4820   12.6030   63.5270 O.3       1 LIG   -0.3750
     43 O19        -8.9130   17.8120   65.7370 O.3       1 LIG   -0.3112
     44 O27       -10.4110   17.7420   67.4450 O.2       1 LIG   -0.2666
     45 O28       -10.4380   14.5220   68.1180 O.2       1 LIG   -0.2756
     46 O43       -10.0460    3.7720   74.5660 O.2       1 LIG   -0.2180
     47 O47       -11.0490    5.9630   70.7820 O.2       1 LIG   -0.2700
     48 O48       -11.4310    9.1400   72.1470 O.2       1 LIG   -0.2756
     49 O49       -12.4270   11.6050   68.3580 O.2       1 LIG   -0.2755
     50 H02       -13.6606   16.1321   71.3425 H         1 LIG    0.0298
     51 H042      -11.6181   16.0903   70.2584 H         1 LIG    0.0293
     52 H043      -10.9433   14.8400   71.3184 H         1 LIG    0.0293
     53 H05       -13.2246   13.9283   69.6668 H         1 LIG    0.0605
     54 H08       -10.9144   15.4216   65.9856 H         1 LIG    0.0504
     55 H092      -13.5771   14.3564   64.9529 H         1 LIG    0.0293
     56 H093      -12.2292   14.8387   63.9014 H         1 LIG    0.0293
     57 H10       -11.9504   12.6819   66.0970 H         1 LIG    0.0391
     58 H11       -12.7396   11.2828   64.9103 H         1 LIG    0.0822
     59 H13        -8.9586   11.5807   63.7568 H         1 LIG    0.0783
     60 H14        -9.5554   13.8425   65.0142 H         1 LIG    0.0594
     61 H162      -13.0758   17.1560   66.5106 H         1 LIG    0.0291
     62 H163      -13.2157   16.7192   64.8003 H         1 LIG    0.0291
     63 H172      -11.0696   17.6164   64.2892 H         1 LIG    0.0374
     64 H173      -11.8705   18.8202   65.3154 H         1 LIG    0.0374
     65 H202       -8.3344   17.2958   67.6549 H         1 LIG    0.0625
     66 H203       -7.1882   16.8584   66.3623 H         1 LIG    0.0625
     67 H22        -5.2796   18.0248   67.4165 H         1 LIG    0.0627
     68 H23        -4.0817   20.1659   67.7412 H         1 LIG    0.0623
     69 H24        -5.2775   22.3161   67.4263 H         1 LIG    0.0623
     70 H25        -7.6620   22.3154   66.7926 H         1 LIG    0.0623
     71 H26        -8.8632   20.1785   66.4605 H         1 LIG    0.0627
     72 H31       -10.3620   10.5437   70.5762 H         1 LIG    0.0608
     73 H32       -10.6606    9.5702   67.6926 H         1 LIG    0.0321
     74 H37       -13.4163    7.1904   70.5270 H         1 LIG    0.0602
     75 H46       -10.4809    2.9651   71.4651 H         1 LIG    0.0674
     76 H07       -13.5362   15.0144   67.4393 H         1 LIG    0.1497
     77 H29       -10.8357   12.8597   70.8707 H         1 LIG    0.1503
     78 H35       -12.5229    8.9791   69.1863 H         1 LIG    0.1503
     79 H39       -12.9476    6.5072   73.2894 H         1 LIG    0.1506
     80 H031      -14.4351   14.2197   72.9325 H         1 LIG    0.0233
     81 H032      -14.4977   13.9234   71.1786 H         1 LIG    0.0233
     82 H033      -13.1695   13.2435   72.1492 H         1 LIG    0.0233
     83 H381      -14.8328    8.9778   71.4401 H         1 LIG    0.0255
     84 H382      -15.1406    7.4309   72.2647 H         1 LIG    0.0255
     85 H383      -14.1607    8.6849   73.0620 H         1 LIG    0.0255
     86 H15       -13.8595   11.8901   63.0066 H         1 LIG    0.2126
     87 H341       -9.7926   11.9107   67.6908 H         1 LIG    0.0234
     88 H342       -8.4871   11.4208   68.7968 H         1 LIG    0.0234
     89 H343       -8.5554   10.7515   67.1489 H         1 LIG    0.0234
     90 H011      -13.2978   16.1204   73.7840 H         1 LIG    0.0233
     91 H012      -11.7557   15.2664   73.5382 H         1 LIG    0.0233
     92 H013      -11.9709   16.9152   72.9032 H         1 LIG    0.0233
     93 H331       -8.4983    8.3941   68.1422 H         1 LIG    0.0234
     94 H332       -8.5251    9.0031   69.8144 H         1 LIG    0.0234
     95 H333       -9.7801    7.8691   69.2601 H         1 LIG    0.0234
     96 H451       -9.0478    1.3207   74.8397 H         1 LIG    0.0302
     97 H452       -8.4851    1.3492   73.1514 H         1 LIG    0.0302
     98 H453      -10.1080    0.7288   73.5382 H         1 LIG    0.0302
     99 H12       -11.2674   10.5379   63.2719 H         1 LIG    0.1485
@<TRIPOS>BOND
     1    1    2 1
     2    2    3 1
     3    2    4 1
     4    4    5 1
     5    5    6 1
     6    5   38 1
     7    6   36 am
     8    6   45 2
     9    7    8 1
    10    7   13 1
    11    7   36 1
    12    8    9 1
    13    9   10 1
    14    9   12 1
    15   10   37 1
    16   10   42 1
    17   11   12 2
    18   11   37 1
    19   14   13 1
    20   14   15 1
    21   15   43 1
    22   15   44 2
    23   16   17 1
    24   16   43 1
    25   17   18 ar
    26   17   22 ar
    27   18   19 ar
    28   19   20 ar
    29   20   21 ar
    30   21   22 ar
    31   23   24 1
    32   23   38 am
    33   23   49 2
    34   24   25 1
    35   24   39 1
    36   25   26 1
    37   25   27 1
    38   28   29 1
    39   28   39 am
    40   28   48 2
    41   29   30 1
    42   29   40 1
    43   31   32 1
    44   31   40 am
    45   31   47 2
    46   32   35 ar
    47   32   41 ar
    48   33   34 1
    49   33   35 ar
    50   33   46 ar
    51   41   46 ar
    52   50    2 1
    53   51    4 1
    54   52    4 1
    55   53    5 1
    56   54    7 1
    57   55    8 1
    58   56    8 1
    59   57    9 1
    60   58   10 1
    61   59   11 1
    62   60   12 1
    63   61   13 1
    64   62   13 1
    65   63   14 1
    66   64   14 1
    67   65   16 1
    68   66   16 1
    69   67   18 1
    70   68   19 1
    71   69   20 1
    72   70   21 1
    73   71   22 1
    74   72   24 1
    75   73   25 1
    76   74   29 1
    77   75   35 1
    78   76   36 1
    79   77   38 1
    80   78   39 1
    81   79   40 1
    82   80    3 1
    83   81    3 1
    84   82    3 1
    85   83   30 1
    86   84   30 1
    87   85   30 1
    88   86   42 1
    89   87   27 1
    90   88   27 1
    91   89   27 1
    92   90    1 1
    93   91    1 1
    94   92    1 1
    95   93   26 1
    96   94   26 1
    97   95   26 1
    98   96   34 1
    99   97   34 1
   100   98   34 1
   101   99   37 1
@<TRIPOS>SUBSTRUCTURE
     1 LIG     1 RESIDUE           4 B     LIG     0 ROOT
