@<TRIPOS>MOLECULE
model.pdb
12 11 1 0 0
SMALL
NO_CHARGES


@<TRIPOS>ATOM
      1 C05       -12.1490   14.0970   69.7190 C.3       1 LIG    0.0000
      2 C06       -11.6060   14.5460   68.3340 C.2       1 LIG    0.0000
      3 C08       -12.0040   15.4120   65.9580 C.3       1 LIG    0.0000
      4 N07       -12.5410   14.9950   67.2680 N.am      1 LIG    0.0000
      5 O28       -10.4380   14.5220   68.1180 O.2       1 LIG    0.0000
      6 H07       -13.5362   15.0144   67.4393 H         1 LIG    0.0000
      7 H081      -12.8253   15.7094   65.3061 H         1 LIG    0.0000
      8 H082      -11.4642   14.5802   65.5055 H         1 LIG    0.0000
      9 H083      -11.3255   16.2540   66.0948 H         1 LIG    0.0000
     10 H051      -11.3163   13.8065   70.3595 H         1 LIG    0.0000
     11 H052      -12.8198   13.2479   69.5881 H         1 LIG    0.0000
     12 H053      -12.6923   14.9214   70.1809 H         1 LIG    0.0000
@<TRIPOS>BOND
     1    1    2 1
     2    2    4 am
     3    2    5 2
     4    3    4 1
     5    6    4 1
     6    7    3 1
     7    8    3 1
     8    9    3 1
     9   10    1 1
    10   11    1 1
    11   12    1 1
@<TRIPOS>SUBSTRUCTURE
     1 LIG     1 RESIDUE           4 B     LIG     0 ROOT
