MODEL 1
REMARK VINA RESULT:     -12.8      0.000      0.000
REMARK  12 active torsions:
REMARK  status: ('A' for Active; 'I' for Inactive)
REMARK    1  A    between atoms: N2_3  and  C2_4 
REMARK    2  A    between atoms: C2_4  and  C20_13 
REMARK    3  A    between atoms: C3_5  and  C31_20 
REMARK    4  A    between atoms: C4_6  and  O4_7 
REMARK    5  A    between atoms: C5_8  and  O5_9 
REMARK    6  A    between atoms: C6_10  and  C61_27 
REMARK    7  A    between atoms: N7_11  and  C7_12 
REMARK    8  A    between atoms: C7_12  and  C70_34 
REMARK    9  A    between atoms: C28_17  and  N29_18 
REMARK   10  A    between atoms: C31_20  and  C32_21 
REMARK   11  A    between atoms: C61_27  and  C62_28 
REMARK   12  A    between atoms: C72_36  and  N79_37 
ROOT
ATOM      1  C1  DMQ d          -8.750  15.470  27.561  0.00  0.00     0.322 C 
ATOM      2  O1  DMQ d          -8.059  14.475  27.647  0.00  0.00    -0.247 OA
ATOM      3  N2  DMQ d          -9.645  15.622  28.546  0.00  0.00    -0.322 N 
ATOM      4  C3  DMQ d         -10.867  16.462  28.384  0.00  0.00     0.124 C 
ATOM      5  C4  DMQ d         -10.694  17.940  28.216  0.00  0.00     0.172 C 
ATOM      6  C5  DMQ d         -10.148  18.369  26.876  0.00  0.00     0.172 C 
ATOM      7  C6  DMQ d          -8.766  17.825  26.563  0.00  0.00     0.124 C 
ATOM      8  N7  DMQ d          -8.611  16.332  26.501  0.00  0.00    -0.322 N 
ENDROOT
BRANCH   3   9
ATOM      9  C2  DMQ d          -9.480  14.763  29.764  0.00  0.00     0.166 C 
BRANCH   9  10
ATOM     10  C20 DMQ d          -9.292  15.512  31.046  0.00  0.00    -0.038 A 
ATOM     11  C29 DMQ d         -10.110  15.254  32.151  0.00  0.00     0.037 A 
ATOM     12  C28 DMQ d          -9.944  16.025  33.321  0.00  0.00     0.026 A 
ATOM     13  C23 DMQ d          -8.936  17.018  33.397  0.00  0.00     0.029 A 
ATOM     14  C22 DMQ d          -8.110  17.270  32.298  0.00  0.00     0.003 A 
ATOM     15  C21 DMQ d          -8.309  16.512  31.131  0.00  0.00     0.009 A 
BRANCH  12  16
ATOM     16  N29 DMQ d         -10.883  15.933  34.384  0.00  0.00    -0.399 N 
ATOM     17  H14 DMQ d         -11.018  15.038  34.876  0.00  0.00     0.156 HD
ATOM     18  H15 DMQ d         -11.429  16.761  34.662  0.00  0.00     0.156 HD
ENDBRANCH  12  16
ENDBRANCH   9  10
ENDBRANCH   3   9
BRANCH   4  19
ATOM     19  C31 DMQ d         -11.856  15.777  27.422  0.00  0.00     0.066 C 
BRANCH  19  20
ATOM     20  C32 DMQ d         -12.412  14.536  28.106  0.00  0.00    -0.056 A 
ATOM     21  C37 DMQ d         -12.076  13.252  27.601  0.00  0.00     0.007 A 
ATOM     22  C36 DMQ d         -12.620  12.098  28.201  0.00  0.00     0.001 A 
ATOM     23  C35 DMQ d         -13.485  12.241  29.310  0.00  0.00     0.000 A 
ATOM     24  C34 DMQ d         -13.819  13.505  29.822  0.00  0.00     0.001 A 
ATOM     25  C33 DMQ d         -13.288  14.650  29.214  0.00  0.00     0.007 A 
ENDBRANCH  19  20
ENDBRANCH   4  19
BRANCH   8  26
ATOM     26  C7  DMQ d          -8.036  15.803  25.235  0.00  0.00     0.166 C 
BRANCH  26  27
ATOM     27  C70 DMQ d          -8.535  16.344  23.913  0.00  0.00    -0.038 A 
ATOM     28  C79 DMQ d          -9.831  16.018  23.443  0.00  0.00     0.009 A 
ATOM     29  C78 DMQ d         -10.244  16.442  22.163  0.00  0.00     0.003 A 
ATOM     30  C77 DMQ d          -9.345  17.187  21.352  0.00  0.00     0.029 A 
ATOM     31  C72 DMQ d          -8.059  17.518  21.822  0.00  0.00     0.026 A 
ATOM     32  C71 DMQ d          -7.659  17.104  23.106  0.00  0.00     0.037 A 
BRANCH  31  33
ATOM     33  N79 DMQ d          -7.164  18.253  20.983  0.00  0.00    -0.399 N 
ATOM     34  H32 DMQ d          -6.248  17.854  20.734  0.00  0.00     0.156 HD
ATOM     35  H33 DMQ d          -7.437  19.181  20.628  0.00  0.00     0.156 HD
ENDBRANCH  31  33
ENDBRANCH  26  27
ENDBRANCH   8  26
BRANCH   5  36
ATOM     36  O4  DMQ d         -11.975  18.436  28.446  0.00  0.00    -0.391 OA
ATOM     37  H5  DMQ d         -12.538  18.206  27.716  0.00  0.00     0.210 HD
ENDBRANCH   5  36
BRANCH   7  38
ATOM     38  C61 DMQ d          -7.567  18.433  27.377  0.00  0.00     0.066 C 
BRANCH  38  39
ATOM     39  C62 DMQ d          -6.216  18.342  26.670  0.00  0.00    -0.056 A 
ATOM     40  C67 DMQ d          -5.261  17.367  27.070  0.00  0.00     0.007 A 
ATOM     41  C66 DMQ d          -4.050  17.216  26.360  0.00  0.00     0.001 A 
ATOM     42  C65 DMQ d          -3.801  18.054  25.247  0.00  0.00     0.000 A 
ATOM     43  C64 DMQ d          -4.735  19.031  24.850  0.00  0.00     0.001 A 
ATOM     44  C63 DMQ d          -5.937  19.173  25.566  0.00  0.00     0.007 A 
ENDBRANCH  38  39
ENDBRANCH   7  38
BRANCH   6  45
ATOM     45  O5  DMQ d         -10.038  19.744  26.930  0.00  0.00    -0.391 OA
ATOM     46  H7  DMQ d          -9.126  19.983  27.049  0.00  0.00     0.210 HD
ENDBRANCH   6  45
TORSDOF 12
ENDMDL
