REMARK  4 active torsions:
REMARK  status: ('A' for Active; 'I' for Inactive)
REMARK    1  A    between atoms: C7_7  and  C8_8 
REMARK       I    between atoms: C8_8  and  N1_10 
REMARK    2  A    between atoms: N1_10  and  C9_11 
REMARK    3  A    between atoms: C9_11  and  C10_12 
REMARK    4  A    between atoms: C10_12  and  C11_13 
ROOT
HETATM    1  C8  UNL     1      -1.313   0.055  -0.755  1.00  0.00     0.252 C 
HETATM    2  O1  UNL     1      -0.858  -0.783  -1.522  1.00  0.00    -0.268 OA
HETATM    3  N1  UNL     1      -0.547   1.017  -0.128  1.00  0.00    -0.357 N 
HETATM    4  H8  UNL     1      -0.959   1.561   0.620  1.00  0.00     0.162 HD
ENDROOT
BRANCH   3   5
HETATM    5  C9  UNL     1       0.893   1.061  -0.296  1.00  0.00     0.127 C 
BRANCH   5   6
HETATM    6  C10 UNL     1       1.605   0.002   0.548  1.00  0.00     0.061 C 
BRANCH   6   7
HETATM    7  C11 UNL     1       3.100   0.072   0.386  1.00  0.00    -0.018 A 
HETATM    8  C12 UNL     1       3.764  -0.770  -0.516  1.00  0.00     0.010 A 
HETATM    9  C13 UNL     1       5.150  -0.685  -0.671  1.00  0.00     0.001 A 
HETATM   10  C14 UNL     1       5.884   0.243   0.068  1.00  0.00     0.003 A 
HETATM   11  C15 UNL     1       5.232   1.091   0.961  1.00  0.00     0.043 A 
HETATM   12  C16 UNL     1       3.851   1.001   1.111  1.00  0.00     0.122 A 
HETATM   13  F1  UNL     1       3.236   1.832   1.965  1.00  0.00    -0.206 F 
ENDBRANCH   6   7
ENDBRANCH   5   6
ENDBRANCH   3   5
BRANCH   1  14
HETATM   14  C7  UNL     1      -2.762   0.079  -0.411  1.00  0.00     0.037 A 
HETATM   15  C2  UNL     1      -3.459  -1.104  -0.101  1.00  0.00    -0.046 A 
HETATM   16  C1  UNL     1      -2.789  -2.450  -0.097  1.00  0.00     0.049 C 
HETATM   17  C3  UNL     1      -4.829  -1.020   0.193  1.00  0.00     0.007 A 
HETATM   18  C4  UNL     1      -5.488   0.211   0.192  1.00  0.00     0.001 A 
HETATM   19  C5  UNL     1      -4.792   1.377  -0.115  1.00  0.00     0.001 A 
HETATM   20  C6  UNL     1      -3.433   1.313  -0.419  1.00  0.00     0.017 A 
ENDBRANCH   1  14
TORSDOF 4
