REMARK  4 active torsions:
REMARK  status: ('A' for Active; 'I' for Inactive)
REMARK    1  A    between atoms: C2_2  and  C3_3 
REMARK    2  A    between atoms: C8_8  and  N1_9 
REMARK    3  A    between atoms: N1_9  and  C9_10 
REMARK    4  A    between atoms: C9_10  and  C10_11 
ROOT
HETATM    1  N1  UNL     1       0.090  -0.215  -0.232  1.00  0.00    -0.288 NA
HETATM    2  H10 UNL     1       0.208   0.320   0.624  1.00  0.00     0.128 HD
ENDROOT
BRANCH   1   3
HETATM    3  C8  UNL     1      -1.226  -0.694  -0.352  1.00  0.00     0.014 A 
HETATM    4  C3  UNL     1      -2.306   0.096   0.126  1.00  0.00    -0.037 A 
HETATM    5  C4  UNL     1      -3.625  -0.372  -0.037  1.00  0.00     0.009 A 
HETATM    6  C5  UNL     1      -3.889  -1.570  -0.698  1.00  0.00     0.001 A 
HETATM    7  C6  UNL     1      -2.841  -2.316  -1.215  1.00  0.00     0.002 A 
HETATM    8  C7  UNL     1      -1.527  -1.873  -1.054  1.00  0.00     0.024 A 
BRANCH   4   9
HETATM    9  C2  UNL     1      -2.029   1.422   0.819  1.00  0.00     0.036 C 
HETATM   10  C1  UNL     1      -3.224   2.310   1.148  1.00  0.00     0.010 C 
ENDBRANCH   4   9
ENDBRANCH   1   3
BRANCH   1  11
HETATM   11  C9  UNL     1       1.222  -1.112  -0.452  1.00  0.00     0.134 C 
BRANCH  11  12
HETATM   12  C10 UNL     1       2.516  -0.378  -0.198  1.00  0.00    -0.006 A 
HETATM   13  C11 UNL     1       2.776   0.867  -0.793  1.00  0.00     0.011 A 
HETATM   14  C12 UNL     1       3.990   1.522  -0.569  1.00  0.00     0.001 A 
HETATM   15  C13 UNL     1       4.962   0.938   0.242  1.00  0.00     0.003 A 
HETATM   16  C14 UNL     1       4.722  -0.304   0.826  1.00  0.00     0.043 A 
HETATM   17  C15 UNL     1       3.510  -0.952   0.600  1.00  0.00     0.123 A 
HETATM   18  F1  UNL     1       3.308  -2.151   1.164  1.00  0.00    -0.206 F 
ENDBRANCH  11  12
ENDBRANCH   1  11
TORSDOF 4
