REMARK  4 active torsions:
REMARK  status: ('A' for Active; 'I' for Inactive)
REMARK    1  A    between atoms: C1_2  and  C2_3 
REMARK    2  A    between atoms: C1_2  and  C9_12 
REMARK    3  A    between atoms: C2_3  and  O2_4 
REMARK    4  A    between atoms: O2_4  and  C3_5 
ROOT
HETATM    1  O1  UNL     1      -1.670  -1.436  -0.384  1.00  0.00    -0.290 OA
HETATM    2  C1  UNL     1      -1.291  -0.264  -0.276  1.00  0.00     0.186 C 
ENDROOT
BRANCH   2   3
HETATM    3  C2  UNL     1       0.083   0.216  -0.759  1.00  0.00     0.259 C 
BRANCH   3   4
HETATM    4  O2  UNL     1       0.672  -0.812  -1.559  1.00  0.00    -0.340 OA
BRANCH   4   5
HETATM    5  C3  UNL     1       1.929  -1.174  -1.154  1.00  0.00     0.107 A 
HETATM    6  C4  UNL     1       2.160  -2.539  -0.981  1.00  0.00     0.040 A 
HETATM    7  C5  UNL     1       3.420  -2.989  -0.578  1.00  0.00     0.003 A 
HETATM    8  C6  UNL     1       4.456  -2.080  -0.355  1.00  0.00     0.003 A 
HETATM    9  C7  UNL     1       4.238  -0.717  -0.562  1.00  0.00     0.045 A 
HETATM   10  C8  UNL     1       2.977  -0.272  -0.962  1.00  0.00     0.149 A 
HETATM   11  F1  UNL     1       2.785   1.042  -1.154  1.00  0.00    -0.203 F 
ENDBRANCH   4   5
ENDBRANCH   3   4
ENDBRANCH   2   3
BRANCH   2  12
HETATM   12  C9  UNL     1      -2.210   0.708   0.384  1.00  0.00     0.051 A 
HETATM   13  C10 UNL     1      -3.494   0.266   0.745  1.00  0.00     0.018 A 
HETATM   14  C11 UNL     1      -4.404   1.133   1.357  1.00  0.00     0.001 A 
HETATM   15  C12 UNL     1      -4.044   2.454   1.595  1.00  0.00     0.003 A 
HETATM   16  C13 UNL     1      -2.764   2.900   1.263  1.00  0.00     0.043 A 
HETATM   17  C14 UNL     1      -1.857   2.030   0.657  1.00  0.00     0.130 A 
HETATM   18  F2  UNL     1      -0.643   2.509   0.355  1.00  0.00    -0.205 F 
ENDBRANCH   2  12
TORSDOF 4
