REMARK  2 active torsions:
REMARK  status: ('A' for Active; 'I' for Inactive)
REMARK       I    between atoms: N1_2  and  C2_3 
REMARK       I    between atoms: C2_3  and  N2_5 
REMARK    1  A    between atoms: N2_5  and  C3_6 
REMARK    2  A    between atoms: C3_6  and  C4_7 
ROOT
HETATM    1  C3  UNL     1      -0.121   0.561  -0.045  1.00  0.00     0.166 C 
ENDROOT
BRANCH   1   2
HETATM    2  N2  UNL     1      -0.971  -0.410   0.616  1.00  0.00    -0.339 N 
HETATM    3  C2  UNL     1      -2.323  -0.335   0.742  1.00  0.00     0.315 C 
HETATM    4  N1  UNL     1      -2.962   0.447  -0.175  1.00  0.00    -0.347 N 
HETATM    5  O1  UNL     1      -2.889  -0.941   1.644  1.00  0.00    -0.247 OA
HETATM    6  C1  UNL     1      -4.401   0.545  -0.142  1.00  0.00     0.151 C 
HETATM    7  H4  UNL     1      -2.544   0.445  -1.091  1.00  0.00     0.163 HD
HETATM    8  H5  UNL     1      -0.568  -0.895   1.408  1.00  0.00     0.164 HD
ENDBRANCH   1   2
BRANCH   1   9
HETATM    9  C4  UNL     1       1.315   0.120  -0.083  1.00  0.00    -0.002 A 
HETATM   10  C5  UNL     1       1.674  -1.171  -0.501  1.00  0.00     0.012 A 
HETATM   11  C6  UNL     1       3.018  -1.552  -0.555  1.00  0.00     0.001 A 
HETATM   12  C7  UNL     1       4.019  -0.646  -0.206  1.00  0.00     0.003 A 
HETATM   13  C8  UNL     1       3.676   0.643   0.194  1.00  0.00     0.043 A 
HETATM   14  C9  UNL     1       2.335   1.017   0.247  1.00  0.00     0.124 A 
HETATM   15  F1  UNL     1       2.031   2.268   0.621  1.00  0.00    -0.205 F 
ENDBRANCH   1   9
TORSDOF 2
