REMARK  5 active torsions:
REMARK  status: ('A' for Active; 'I' for Inactive)
REMARK    1  A    between atoms: O1_2  and  C2_3 
REMARK    2  A    between atoms: C2_3  and  C3_5 
REMARK    3  A    between atoms: C8_10  and  C9_11 
REMARK    4  A    between atoms: C9_11  and  C10_12 
REMARK    5  A    between atoms: C10_12  and  C12_14 
ROOT
HETATM    1  C3  UNL     1      -1.923  -0.847  -0.399  1.00  0.00     0.045 A 
HETATM    2  C4  UNL     1      -2.216  -1.971  -1.188  1.00  0.00     0.018 A 
HETATM    3  C5  UNL     1      -1.381  -3.086  -1.159  1.00  0.00     0.001 A 
HETATM    4  C6  UNL     1      -0.252  -3.080  -0.347  1.00  0.00     0.001 A 
HETATM    5  C7  UNL     1       0.053  -1.956   0.425  1.00  0.00     0.008 A 
HETATM    6  C8  UNL     1      -0.766  -0.812   0.403  1.00  0.00    -0.041 A 
ENDROOT
BRANCH   6   7
HETATM    7  C9  UNL     1      -0.339   0.396   1.215  1.00  0.00     0.048 C 
BRANCH   7   8
HETATM    8  C10 UNL     1       0.630   1.388   0.521  1.00  0.00     0.022 C 
HETATM    9  C11 UNL     1      -0.003   2.090  -0.686  1.00  0.00     0.015 C 
BRANCH   8  10
HETATM   10  C12 UNL     1       1.996   0.780   0.244  1.00  0.00    -0.015 A 
HETATM   11  C13 UNL     1       2.365   0.266  -1.008  1.00  0.00     0.011 A 
HETATM   12  C14 UNL     1       3.630  -0.299  -1.205  1.00  0.00     0.001 A 
HETATM   13  C15 UNL     1       4.544  -0.363  -0.155  1.00  0.00     0.003 A 
HETATM   14  C16 UNL     1       4.192   0.136   1.096  1.00  0.00     0.043 A 
HETATM   15  C17 UNL     1       2.932   0.696   1.285  1.00  0.00     0.123 A 
HETATM   16  F1  UNL     1       2.613   1.156   2.505  1.00  0.00    -0.206 F 
ENDBRANCH   8  10
ENDBRANCH   7   8
ENDBRANCH   6   7
BRANCH   1  17
HETATM   17  C2  UNL     1      -2.884   0.271  -0.491  1.00  0.00     0.293 C 
HETATM   18  O2  UNL     1      -3.169   0.837  -1.532  1.00  0.00    -0.259 OA
BRANCH  17  19
HETATM   19  O1  UNL     1      -3.430   0.485   0.731  1.00  0.00    -0.323 OA
HETATM   20  C1  UNL     1      -4.414   1.519   0.746  1.00  0.00     0.213 C 
ENDBRANCH  17  19
ENDBRANCH   1  17
TORSDOF 5
