REMARK  0 active torsions:
REMARK  status: ('A' for Active; 'I' for Inactive)
ROOT
HETATM    1  C1  UNL     1      -1.990  -0.198  -0.008  1.00  0.00     0.056 C 
HETATM    2  C2  UNL     1      -0.500  -0.162  -0.012  1.00  0.00    -0.021 A 
HETATM    3  C3  UNL     1       0.333   0.934   0.079  1.00  0.00     0.014 A 
HETATM    4  C4  UNL     1       1.710   0.570   0.042  1.00  0.00     0.008 A 
HETATM    5  C5  UNL     1       1.880  -0.791  -0.077  1.00  0.00     0.050 A 
HETATM    6  S1  UNL     1       0.387  -1.621  -0.142  1.00  0.00    -0.107 SA
ENDROOT
TORSDOF 0
