REMARK  11 active torsions:
REMARK  status: ('A' for Active; 'I' for Inactive)
REMARK    1  A    between atoms: C2_2  and  C4_4 
REMARK    2  A    between atoms: C4_4  and  N5_5 
REMARK    3  A    between atoms: N5_5  and  C6_6 
REMARK    4  A    between atoms: C6_6  and  C8_8 
REMARK    5  A    between atoms: C8_8  and  C9_9 
REMARK    6  A    between atoms: C8_8  and  N24_24 
REMARK    7  A    between atoms: C9_9  and  C11_11 
REMARK    8  A    between atoms: C14_14  and  N15_15 
REMARK       I    between atoms: N15_15  and  C16_16 
REMARK    9  A    between atoms: C16_16  and  C18_18 
REMARK   10  A    between atoms: C27_27  and  C28_28 
REMARK   11  A    between atoms: C28_28  and  C29_29 
ROOT
ATOM      1  C8  ZIN AC000       3.230  -2.395   3.000  0.00  0.00     0.224 C 
ENDROOT
BRANCH   1   2
ATOM      2  C6  ZIN AC000       3.015  -2.165   1.526  0.00  0.00     0.104 C 
ATOM      3  S7  ZIN AC000       2.662  -0.700   0.990  0.00  0.00    -0.063 SA
BRANCH   2   4
ATOM      4  N5  ZIN AC000       3.120  -3.192   0.661  0.00  0.00    -0.378 N 
ATOM      5  H44 ZIN AC000       3.403  -4.065   0.976  0.00  0.00     0.160 HD
BRANCH   4   6
ATOM      6  C4  ZIN AC000       2.808  -2.991  -0.756  0.00  0.00     0.153 C 
BRANCH   6   7
ATOM      7  C2  ZIN AC000       3.004  -4.286  -1.502  0.00  0.00    -0.076 C 
ATOM      8  C1  ZIN AC000       1.985  -5.082  -1.713  0.00  0.00     0.015 C 
ATOM      9  C3  ZIN AC000       4.373  -4.665  -2.006  0.00  0.00     0.044 C 
ENDBRANCH   6   7
ENDBRANCH   4   6
ENDBRANCH   2   4
ENDBRANCH   1   2
BRANCH   1  10
ATOM     10  C9  ZIN AC000       3.238  -1.071   3.720  0.00  0.00     0.189 C 
ATOM     11  O10 ZIN AC000       2.220  -0.652   4.229  0.00  0.00    -0.290 OA
BRANCH  10  12
ATOM     12  C11 ZIN AC000       4.478  -0.290   3.805  0.00  0.00     0.012 A 
ATOM     13  C23 ZIN AC000       4.488   0.941   4.474  0.00  0.00     0.017 A 
ATOM     14  C22 ZIN AC000       5.649   1.665   4.556  0.00  0.00     0.030 A 
ATOM     15  C14 ZIN AC000       6.815   1.183   3.966  0.00  0.00     0.034 A 
ATOM     16  C13 ZIN AC000       6.808  -0.036   3.295  0.00  0.00     0.030 A 
ATOM     17  C12 ZIN AC000       5.653  -0.770   3.213  0.00  0.00     0.017 A 
BRANCH  15  18
ATOM     18  N15 ZIN AC000       7.991   1.925   4.047  0.00  0.00    -0.327 N 
ATOM     19  C16 ZIN AC000       8.874   1.902   3.029  0.00  0.00     0.229 C 
ATOM     20  O17 ZIN AC000       8.603   1.312   2.005  0.00  0.00    -0.272 OA
ATOM     21  H48 ZIN AC000       8.175   2.458   4.836  0.00  0.00     0.169 HD
BRANCH  19  22
ATOM     22  C18 ZIN AC000      10.197   2.610   3.162  0.00  0.00     0.030 C 
ATOM     23  C19 ZIN AC000      11.004   2.430   1.875  0.00  0.00     0.025 C 
ATOM     24  C20 ZIN AC000       9.956   4.101   3.409  0.00  0.00     0.025 C 
ATOM     25  C21 ZIN AC000      10.976   2.018   4.339  0.00  0.00     0.025 C 
ENDBRANCH  19  22
ENDBRANCH  15  18
ENDBRANCH  10  12
ENDBRANCH   1  10
BRANCH   1  26
ATOM     26  N24 ZIN AC000       2.147  -3.231   3.526  0.00  0.00    -0.348 N 
ATOM     27  C36 ZIN AC000       2.449  -4.325   4.197  0.00  0.00     0.092 A 
ATOM     28  C35 ZIN AC000       1.455  -5.135   4.712  0.00  0.00     0.024 A 
ATOM     29  C27 ZIN AC000       0.128  -4.790   4.507  0.00  0.00    -0.051 A 
ATOM     30  C26 ZIN AC000      -0.150  -3.635   3.792  0.00  0.00     0.024 A 
ATOM     31  C25 ZIN AC000       0.897  -2.872   3.312  0.00  0.00     0.092 A 
BRANCH  29  32
ATOM     32  C28 ZIN AC000      -0.986  -5.650   5.048  0.00  0.00     0.077 C 
BRANCH  32  33
ATOM     33  C29 ZIN AC000      -1.364  -6.685   4.020  0.00  0.00    -0.054 A 
ATOM     34  C34 ZIN AC000      -0.731  -7.914   4.012  0.00  0.00     0.007 A 
ATOM     35  C33 ZIN AC000      -1.082  -8.866   3.072  0.00  0.00     0.001 A 
ATOM     36  C32 ZIN AC000      -2.059  -8.585   2.135  0.00  0.00     0.000 A 
ATOM     37  C31 ZIN AC000      -2.688  -7.354   2.141  0.00  0.00     0.001 A 
ATOM     38  C30 ZIN AC000      -2.341  -6.404   3.083  0.00  0.00     0.007 A 
ENDBRANCH  32  33
ENDBRANCH  29  32
ENDBRANCH   1  26
TORSDOF 11
