@<TRIPOS>MOLECULE
ZINC000022727009
59    62    1     0     0
SMALL
USER_CHARGES
@<TRIPOS>ATOM
1      C1     -2.3367    0.0712   -3.4287 C.3      1 ZINC000022727009   -0.1400
2      C2     -1.7154   -1.0646   -2.6573 C.ar     1 ZINC000022727009    0.0400
3      C3     -1.4554   -2.2666   -3.2918 C.ar     1 ZINC000022727009   -0.1200
4      C4     -0.8871   -3.3107   -2.5927 C.ar     1 ZINC000022727009   -0.0300
5      C5     -0.5731   -3.1522   -1.2393 C.ar     1 ZINC000022727009   -0.1900
6      C6      0.0340   -4.2611   -0.4861 C.2      1 ZINC000022727009    0.4000
7      O7      0.3050   -4.1203    0.6874 O.2      1 ZINC000022727009   -0.4100
8      C8      0.3189   -5.5718   -1.1732 C.3      1 ZINC000022727009    0.0700
9      C9      1.7078   -5.5414   -1.7571 C.2      1 ZINC000022727009    0.1900
10     S10     1.9423   -5.9538   -3.2841 S.2      1 ZINC000022727009   -0.2600
11     N11     2.7523   -5.1665   -0.9923 N.am     1 ZINC000022727009   -0.5900
12     C12     4.0536   -5.2339   -1.5032 C.ar     1 ZINC000022727009    0.0500
13     C13     4.3397   -4.6972   -2.7508 C.ar     1 ZINC000022727009   -0.0400
14     C14     5.6255   -4.7647   -3.2525 C.ar     1 ZINC000022727009   -0.1100
15     C15     6.6274   -5.3664   -2.5141 C.ar     1 ZINC000022727009   -0.0600
16     C16     6.3475   -5.9027   -1.2702 C.ar     1 ZINC000022727009   -0.1400
17     C17     5.0646   -5.8338   -0.7594 C.ar     1 ZINC000022727009    0.1100
18     F18     4.7909   -6.3576    0.4555 F        1 ZINC000022727009   -0.1400
19     N19     0.2215   -6.6638   -0.2015 N.ar     1 ZINC000022727009   -0.3400
20     C20     1.0088   -6.6542    0.8563 C.ar     1 ZINC000022727009    0.1300
21     C21     0.9450   -7.6671    1.7944 C.ar     1 ZINC000022727009   -0.1100
22     C22     0.0391   -8.7008    1.6119 C.ar     1 ZINC000022727009    0.0600
23     C23    -0.0618   -9.8236    2.6120 C.3      1 ZINC000022727009   -0.0600
24     C24    -1.0758   -9.4663    3.6679 C.ar     1 ZINC000022727009   -0.1100
25     C25    -0.6792   -8.7899    4.8064 C.ar     1 ZINC000022727009   -0.1100
26     C26    -1.6094   -8.4621    5.7749 C.ar     1 ZINC000022727009   -0.1100
27     C27    -2.9363   -8.8103    5.6048 C.ar     1 ZINC000022727009   -0.1100
28     C28    -3.3331   -9.4858    4.4659 C.ar     1 ZINC000022727009   -0.1100
29     C29    -2.4037   -9.8098    3.4954 C.ar     1 ZINC000022727009   -0.1100
30     C30    -0.7720   -8.6766    0.4877 C.ar     1 ZINC000022727009   -0.1200
31     C31    -0.6550   -7.6279   -0.4047 C.ar     1 ZINC000022727009    0.1300
32     C32    -0.8386   -1.9340   -0.6053 C.ar     1 ZINC000022727009    0.0200
33     C33    -1.4027   -0.8981   -1.3191 C.ar     1 ZINC000022727009   -0.0500
34     N34    -1.6845    0.3917   -0.6502 N.pl3    1 ZINC000022727009    0.0200
35     O35    -1.5080    1.4387   -1.2472 O.2      1 ZINC000022727009   -0.1200
36     O36    -2.0928    0.4063    0.4972 O.2      1 ZINC000022727009   -0.1400
37     H37    -1.5531    0.7401   -3.7846 H        1 ZINC000022727009    0.1100
38     H38    -2.8888   -0.3270   -4.2800 H        1 ZINC000022727009    0.0900
39     H39    -3.0174    0.6219   -2.7795 H        1 ZINC000022727009    0.0800
40     H40    -1.6985   -2.3874   -4.3371 H        1 ZINC000022727009    0.1700
41     H41    -0.6854   -4.2484   -3.0891 H        1 ZINC000022727009    0.1500
42     H42    -0.4072   -5.7293   -1.9707 H        1 ZINC000022727009    0.2000
43     H43     2.6022   -4.8501   -0.0877 H        1 ZINC000022727009    0.4100
44     H44     3.5579   -4.2275   -3.3292 H        1 ZINC000022727009    0.1500
45     H45     5.8480   -4.3471   -4.2233 H        1 ZINC000022727009    0.1500
46     H46     7.6311   -5.4180   -2.9095 H        1 ZINC000022727009    0.1500
47     H47     7.1325   -6.3721   -0.6959 H        1 ZINC000022727009    0.1500
48     H48     1.7120   -5.8456    0.9910 H        1 ZINC000022727009    0.1900
49     H49     1.5927   -7.6538    2.6585 H        1 ZINC000022727009    0.1900
50     H50    -0.3728  -10.7362    2.1035 H        1 ZINC000022727009    0.1100
51     H51     0.9099   -9.9817    3.0800 H        1 ZINC000022727009    0.1100
52     H52     0.3575   -8.5179    4.9392 H        1 ZINC000022727009    0.1200
53     H53    -1.2994   -7.9343    6.6647 H        1 ZINC000022727009    0.1300
54     H54    -3.6630   -8.5548    6.3619 H        1 ZINC000022727009    0.1300
55     H55    -4.3698   -9.7581    4.3332 H        1 ZINC000022727009    0.1300
56     H56    -2.7137  -10.3376    2.6056 H        1 ZINC000022727009    0.1300
57     H57    -1.4887   -9.4656    0.3134 H        1 ZINC000022727009    0.1900
58     H58    -1.2832   -7.6017   -1.2829 H        1 ZINC000022727009    0.2200
59     H59    -0.5993   -1.8041    0.4398 H        1 ZINC000022727009    0.1600
@<TRIPOS>BOND
1     1     2     1
2     1     37    1
3     1     38    1
4     1     39    1
5     2     33    ar
6     2     3     ar
7     3     4     ar
8     3     40    1
9     4     5     ar
10    4     41    1
11    5     6     1
12    5     32    ar
13    6     7     2
14    6     8     1
15    8     9     1
16    8     19    1
17    8     42    1
18    9     10    2
19    9     11    am
20    11    12    1
21    11    43    1
22    12    17    ar
23    12    13    ar
24    13    14    ar
25    13    44    1
26    14    15    ar
27    14    45    1
28    15    16    ar
29    15    46    1
30    16    17    ar
31    16    47    1
32    17    18    1
33    19    31    ar
34    19    20    ar
35    20    21    ar
36    20    48    1
37    21    22    ar
38    21    49    1
39    22    23    1
40    22    30    ar
41    23    24    1
42    23    50    1
43    23    51    1
44    24    29    ar
45    24    25    ar
46    25    26    ar
47    25    52    1
48    26    27    ar
49    26    53    1
50    27    28    ar
51    27    54    1
52    28    29    ar
53    28    55    1
54    29    56    1
55    30    31    ar
56    30    57    1
57    31    58    1
58    32    33    ar
59    32    59    1
60    33    34    1
61    34    35    2
62    34    36    2
@<TRIPOS>SUBSTRUCTURE
1   ZINC000022727009 1     RESIDUE    1   A     ZIN   1
