REMARK  8 active torsions:
REMARK  status: ('A' for Active; 'I' for Inactive)
REMARK    1  A    between atoms: C5_5  and  C6_6 
REMARK    2  A    between atoms: C6_6  and  C8_8 
REMARK    3  A    between atoms: C8_8  and  C9_9 
REMARK    4  A    between atoms: C8_8  and  N19_19 
REMARK    5  A    between atoms: N11_11  and  C12_12 
REMARK    6  A    between atoms: C22_22  and  C23_23 
REMARK    7  A    between atoms: C23_23  and  C24_24 
REMARK    8  A    between atoms: C33_33  and  N34_34 
ROOT
ATOM      1  C8  ZIN AC000       0.319  -5.572  -1.173  0.00  0.00     0.224 C 
ENDROOT
BRANCH   1   2
ATOM      2  C6  ZIN AC000       0.034  -4.261  -0.486  0.00  0.00     0.189 C 
ATOM      3  O7  ZIN AC000       0.305  -4.120   0.687  0.00  0.00    -0.290 OA
BRANCH   2   4
ATOM      4  C5  ZIN AC000      -0.573  -3.152  -1.239  0.00  0.00     0.015 A 
ATOM      5  C4  ZIN AC000      -0.887  -3.311  -2.593  0.00  0.00     0.016 A 
ATOM      6  C3  ZIN AC000      -1.455  -2.267  -3.292  0.00  0.00     0.010 A 
ATOM      7  C2  ZIN AC000      -1.715  -1.065  -2.657  0.00  0.00    -0.029 A 
ATOM      8  C1  ZIN AC000      -2.337   0.071  -3.429  0.00  0.00     0.050 C 
ATOM      9  C33 ZIN AC000      -1.403  -0.898  -1.319  0.00  0.00     0.109 A 
ATOM     10  C32 ZIN AC000      -0.839  -1.934  -0.605  0.00  0.00     0.051 A 
BRANCH   9  11
ATOM     11  N34 ZIN AC000      -1.685   0.392  -0.650  0.00  0.00    -0.115 N 
ATOM     12  O35 ZIN AC000      -1.508   1.439  -1.247  0.00  0.00    -0.532 OA
ATOM     13  O36 ZIN AC000      -2.093   0.406   0.497  0.00  0.00    -0.532 OA
ENDBRANCH   9  11
ENDBRANCH   2   4
ENDBRANCH   1   2
BRANCH   1  14
ATOM     14  C9  ZIN AC000       1.708  -5.541  -1.757  0.00  0.00     0.109 C 
ATOM     15  S10 ZIN AC000       1.942  -5.954  -3.284  0.00  0.00    -0.062 SA
ATOM     16  N11 ZIN AC000       2.752  -5.167  -0.992  0.00  0.00    -0.346 N 
ATOM     17  H43 ZIN AC000       2.602  -4.850  -0.088  0.00  0.00     0.167 HD
BRANCH  16  18
ATOM     18  C12 ZIN AC000       4.054  -5.234  -1.503  0.00  0.00     0.072 A 
ATOM     19  C17 ZIN AC000       5.065  -5.834  -0.759  0.00  0.00     0.142 A 
ATOM     20  C16 ZIN AC000       6.348  -5.903  -1.270  0.00  0.00     0.044 A 
ATOM     21  F18 ZIN AC000       4.791  -6.358   0.456  0.00  0.00    -0.204 F 
ATOM     22  C15 ZIN AC000       6.627  -5.366  -2.514  0.00  0.00     0.003 A 
ATOM     23  C14 ZIN AC000       5.625  -4.765  -3.252  0.00  0.00     0.002 A 
ATOM     24  C13 ZIN AC000       4.340  -4.697  -2.751  0.00  0.00     0.033 A 
ENDBRANCH  16  18
ENDBRANCH   1  14
BRANCH   1  25
ATOM     25  N19 ZIN AC000       0.222  -6.664  -0.202  0.00  0.00    -0.348 N 
ATOM     26  C31 ZIN AC000      -0.655  -7.628  -0.405  0.00  0.00     0.092 A 
ATOM     27  C30 ZIN AC000      -0.772  -8.677   0.488  0.00  0.00     0.024 A 
ATOM     28  C22 ZIN AC000       0.039  -8.701   1.612  0.00  0.00    -0.051 A 
ATOM     29  C21 ZIN AC000       0.945  -7.667   1.794  0.00  0.00     0.024 A 
ATOM     30  C20 ZIN AC000       1.009  -6.654   0.856  0.00  0.00     0.092 A 
BRANCH  28  31
ATOM     31  C23 ZIN AC000      -0.062  -9.824   2.612  0.00  0.00     0.077 C 
BRANCH  31  32
ATOM     32  C24 ZIN AC000      -1.076  -9.466   3.668  0.00  0.00    -0.054 A 
ATOM     33  C29 ZIN AC000      -2.404  -9.810   3.495  0.00  0.00     0.007 A 
ATOM     34  C28 ZIN AC000      -3.333  -9.486   4.466  0.00  0.00     0.001 A 
ATOM     35  C27 ZIN AC000      -2.936  -8.810   5.605  0.00  0.00     0.000 A 
ATOM     36  C26 ZIN AC000      -1.609  -8.462   5.775  0.00  0.00     0.001 A 
ATOM     37  C25 ZIN AC000      -0.679  -8.790   4.806  0.00  0.00     0.007 A 
ENDBRANCH  31  32
ENDBRANCH  28  31
ENDBRANCH   1  25
TORSDOF 8
