MODEL 1
REMARK VINA RESULT:     -9.89      0.000      0.000
REMARK  8 active torsions:
REMARK  status: ('A' for Active; 'I' for Inactive)
REMARK    1  A    between atoms: C5_5  and  C6_6 
REMARK    2  A    between atoms: C6_6  and  C8_8 
REMARK    3  A    between atoms: C8_8  and  C9_9 
REMARK    4  A    between atoms: C8_8  and  N19_19 
REMARK    5  A    between atoms: N11_11  and  C12_12 
REMARK    6  A    between atoms: C22_22  and  C23_23 
REMARK    7  A    between atoms: C23_23  and  C24_24 
REMARK    8  A    between atoms: C33_33  and  N34_34 
ROOT
ATOM      1  C8  ZIN AC000     -10.822  16.504  67.761  0.00  0.00     0.224 C 
ENDROOT
BRANCH   1   2
ATOM      2  C6  ZIN AC000     -10.258  15.834  68.988  0.00  0.00     0.189 C 
ATOM      3  O7  ZIN AC000      -9.077  15.931  69.242  0.00  0.00    -0.290 OA
BRANCH   2   4
ATOM      4  C5  ZIN AC000     -11.140  15.062  69.877  0.00  0.00     0.015 A 
ATOM      5  C4  ZIN AC000     -11.563  13.781  69.508  0.00  0.00     0.016 A 
ATOM      6  C3  ZIN AC000     -12.391  13.064  70.346  0.00  0.00     0.010 A 
ATOM      7  C2  ZIN AC000     -12.802  13.609  71.550  0.00  0.00    -0.029 A 
ATOM      8  C1  ZIN AC000     -13.706  12.818  72.461  0.00  0.00     0.050 C 
ATOM      9  C33 ZIN AC000     -12.392  14.878  71.921  0.00  0.00     0.109 A 
ATOM     10  C32 ZIN AC000     -11.560  15.606  71.096  0.00  0.00     0.051 A 
BRANCH   9  11
ATOM     11  N34 ZIN AC000     -12.838  15.452  73.210  0.00  0.00    -0.115 N 
ATOM     12  O35 ZIN AC000     -13.824  16.166  73.251  0.00  0.00    -0.532 OA
ATOM     13  O36 ZIN AC000     -12.219  15.209  74.230  0.00  0.00    -0.532 OA
ENDBRANCH   9  11
ENDBRANCH   2   4
ENDBRANCH   1   2
BRANCH   1  14
ATOM     14  C9  ZIN AC000      -9.888  17.599  67.313  0.00  0.00     0.109 C 
ATOM     15  S10 ZIN AC000     -10.470  18.892  66.575  0.00  0.00    -0.062 SA
ATOM     16  N11 ZIN AC000      -8.564  17.486  67.533  0.00  0.00    -0.346 N 
ATOM     17  H43 ZIN AC000      -8.219  16.737  68.042  0.00  0.00     0.167 HD
BRANCH  16  18
ATOM     18  C12 ZIN AC000      -7.686  18.454  67.029  0.00  0.00     0.072 A 
ATOM     19  C17 ZIN AC000      -7.378  19.579  67.787  0.00  0.00     0.142 A 
ATOM     20  C16 ZIN AC000      -6.506  20.528  67.287  0.00  0.00     0.044 A 
ATOM     21  F18 ZIN AC000      -7.921  19.737  69.014  0.00  0.00    -0.204 F 
ATOM     22  C15 ZIN AC000      -5.950  20.365  66.031  0.00  0.00     0.003 A 
ATOM     23  C14 ZIN AC000      -6.260  19.250  65.274  0.00  0.00     0.002 A 
ATOM     24  C13 ZIN AC000      -7.125  18.295  65.768  0.00  0.00     0.033 A 
ENDBRANCH  16  18
ENDBRANCH   1  14
BRANCH   1  25
ATOM     25  N19 ZIN AC000     -10.968  15.517  66.689  0.00  0.00    -0.348 N 
ATOM     26  C31 ZIN AC000      -9.929  15.241  65.924  0.00  0.00     0.092 A 
ATOM     27  C30 ZIN AC000     -10.029  14.313  64.905  0.00  0.00     0.024 A 
ATOM     28  C22 ZIN AC000     -11.241  13.677  64.685  0.00  0.00    -0.051 A 
ATOM     29  C21 ZIN AC000     -12.312  13.998  65.506  0.00  0.00     0.024 A 
ATOM     30  C20 ZIN AC000     -12.136  14.933  66.509  0.00  0.00     0.092 A 
BRANCH  28  31
ATOM     31  C23 ZIN AC000     -11.391  12.663  63.581  0.00  0.00     0.077 C 
BRANCH  31  32
ATOM     32  C24 ZIN AC000     -10.472  11.498  63.841  0.00  0.00    -0.054 A 
ATOM     33  C29 ZIN AC000     -10.559  10.802  65.033  0.00  0.00     0.007 A 
ATOM     34  C28 ZIN AC000      -9.719   9.730  65.269  0.00  0.00     0.001 A 
ATOM     35  C27 ZIN AC000      -8.786   9.359  64.318  0.00  0.00     0.000 A 
ATOM     36  C26 ZIN AC000      -8.697  10.058  63.129  0.00  0.00     0.001 A 
ATOM     37  C25 ZIN AC000      -9.540  11.128  62.890  0.00  0.00     0.007 A 
ENDBRANCH  31  32
ENDBRANCH  28  31
ENDBRANCH   1  25
TORSDOF 8
ENDMDL
