@<TRIPOS>MOLECULE
ZINC000022735258
62    64    1     0     0
SMALL
USER_CHARGES
@<TRIPOS>ATOM
1      C1     -0.0187    1.5258    0.0104 C.3      1 ZINC000022735258   -0.1600
2      C2      0.0021   -0.0041    0.0020 C.3      1 ZINC000022735258   -0.1200
3      C3     -1.4333   -0.5336    0.0129 C.3      1 ZINC000022735258   -0.0700
4      C4     -2.1352   -0.1312   -1.2857 C.3      1 ZINC000022735258   -0.1200
5      C5     -3.6050   -0.5517   -1.2224 C.3      1 ZINC000022735258   -0.1600
6      C6     -1.4136   -2.0361    0.1285 C.ar     1 ZINC000022735258    0.0700
7      C7     -0.7827   -2.8135   -0.8307 C.ar     1 ZINC000022735258   -0.1200
8      C8     -0.7851   -4.1885   -0.6914 C.ar     1 ZINC000022735258    0.1300
9      N9     -1.3782   -4.7611    0.3378 N.ar     1 ZINC000022735258   -0.3400
10     C10    -1.3590   -6.2217    0.4502 C.3      1 ZINC000022735258    0.0600
11     C11    -0.6742   -6.6179    1.7328 C.2      1 ZINC000022735258    0.3900
12     O12    -1.3313   -6.8393    2.7276 O.2      1 ZINC000022735258   -0.3800
13     C13     0.7913   -6.7361    1.7779 C.ar     1 ZINC000022735258   -0.1700
14     C14     1.5527   -6.4758    0.6338 C.ar     1 ZINC000022735258   -0.0700
15     C15     2.9258   -6.5879    0.6830 C.ar     1 ZINC000022735258   -0.1000
16     C16     3.5524   -6.9574    1.8617 C.ar     1 ZINC000022735258    0.0100
17     Cl17    5.2821   -7.0955    1.9142 Cl       1 ZINC000022735258   -0.0100
18     C18     2.8044   -7.2172    3.0005 C.ar     1 ZINC000022735258   -0.0400
19     Cl19    3.5998   -7.6790    4.4728 Cl       1 ZINC000022735258   -0.0100
20     C20     1.4304   -7.1037    2.9670 C.ar     1 ZINC000022735258   -0.0200
21     C21    -2.7727   -6.7438    0.4534 C.2      1 ZINC000022735258    0.2300
22     S22    -4.0011   -5.7262    0.3436 S.2      1 ZINC000022735258   -0.3700
23     N23    -3.0015   -8.0686    0.5489 N.am     1 ZINC000022735258   -0.6200
24     C24    -4.3757   -8.5762    0.5521 C.3      1 ZINC000022735258    0.1100
25     C25    -4.3557  -10.1016    0.6694 C.3      1 ZINC000022735258   -0.0900
26     C26    -5.7693  -10.6237    0.6726 C.ar     1 ZINC000022735258   -0.1000
27     C27    -6.4507  -10.7665    1.8669 C.ar     1 ZINC000022735258   -0.1100
28     C28    -7.7474  -11.2455    1.8699 C.ar     1 ZINC000022735258   -0.1200
29     C29    -8.3629  -11.5813    0.6786 C.ar     1 ZINC000022735258   -0.1100
30     C30    -7.6819  -11.4376   -0.5158 C.ar     1 ZINC000022735258   -0.1200
31     C31    -6.3867  -10.9546   -0.5191 C.ar     1 ZINC000022735258   -0.1100
32     C32    -1.9877   -4.0535    1.2688 C.ar     1 ZINC000022735258    0.1800
33     C33    -2.0209   -2.6736    1.1995 C.ar     1 ZINC000022735258   -0.1200
34     H34     1.0039    1.9031    0.0027 H        1 ZINC000022735258    0.0600
35     H35    -0.5459    1.8868   -0.8726 H        1 ZINC000022735258    0.0600
36     H36    -0.5289    1.8773    0.9072 H        1 ZINC000022735258    0.0600
37     H37     0.5123   -0.3556   -0.8948 H        1 ZINC000022735258    0.0700
38     H38     0.5293   -0.3651    0.8851 H        1 ZINC000022735258    0.0700
39     H39    -1.9701   -0.1109    0.8621 H        1 ZINC000022735258    0.1100
40     H40    -2.0716    0.9494   -1.4133 H        1 ZINC000022735258    0.0900
41     H41    -1.6518   -0.6256   -2.1283 H        1 ZINC000022735258    0.0700
42     H42    -4.1050   -0.2650   -2.1476 H        1 ZINC000022735258    0.0700
43     H43    -3.6686   -1.6323   -1.0949 H        1 ZINC000022735258    0.0500
44     H44    -4.0884   -0.0573   -0.3798 H        1 ZINC000022735258    0.0600
45     H45    -0.2958   -2.3504   -1.6763 H        1 ZINC000022735258    0.1900
46     H46    -0.2959   -4.8011   -1.4342 H        1 ZINC000022735258    0.2000
47     H47    -0.8176   -6.6441   -0.3963 H        1 ZINC000022735258    0.1800
48     H48     1.0659   -6.1880   -0.2862 H        1 ZINC000022735258    0.1400
49     H49     3.5145   -6.3875   -0.2000 H        1 ZINC000022735258    0.1600
50     H50     0.8486   -7.3061    3.8541 H        1 ZINC000022735258    0.1600
51     H51    -2.2563   -8.6859    0.6155 H        1 ZINC000022735258    0.4100
52     H52    -4.9171   -8.1538    1.3985 H        1 ZINC000022735258    0.1100
53     H53    -4.8710   -8.2896   -0.3756 H        1 ZINC000022735258    0.1000
54     H54    -3.8143  -10.5240   -0.1771 H        1 ZINC000022735258    0.0800
55     H55    -3.8604  -10.3882    1.5971 H        1 ZINC000022735258    0.0800
56     H56    -5.9698  -10.5042    2.7977 H        1 ZINC000022735258    0.1200
57     H57    -8.2794  -11.3577    2.8030 H        1 ZINC000022735258    0.1300
58     H58    -9.3758  -11.9562    0.6810 H        1 ZINC000022735258    0.1300
59     H59    -8.1627  -11.7003   -1.4465 H        1 ZINC000022735258    0.1300
60     H60    -5.8546  -10.8424   -1.4522 H        1 ZINC000022735258    0.1200
61     H61    -2.4629   -4.5579    2.0971 H        1 ZINC000022735258    0.2000
62     H62    -2.5214   -2.0995    1.9652 H        1 ZINC000022735258    0.1900
@<TRIPOS>BOND
1     1     2     1
2     1     34    1
3     1     35    1
4     1     36    1
5     2     3     1
6     2     37    1
7     2     38    1
8     3     4     1
9     3     6     1
10    3     39    1
11    4     5     1
12    4     40    1
13    4     41    1
14    5     42    1
15    5     43    1
16    5     44    1
17    6     33    ar
18    6     7     ar
19    7     8     ar
20    7     45    1
21    8     9     ar
22    8     46    1
23    9     10    1
24    9     32    ar
25    10    11    1
26    10    21    1
27    10    47    1
28    11    12    2
29    11    13    1
30    13    20    ar
31    13    14    ar
32    14    15    ar
33    14    48    1
34    15    16    ar
35    15    49    1
36    16    17    1
37    16    18    ar
38    18    19    1
39    18    20    ar
40    20    50    1
41    21    22    2
42    21    23    am
43    23    24    1
44    23    51    1
45    24    25    1
46    24    52    1
47    24    53    1
48    25    26    1
49    25    54    1
50    25    55    1
51    26    31    ar
52    26    27    ar
53    27    28    ar
54    27    56    1
55    28    29    ar
56    28    57    1
57    29    30    ar
58    29    58    1
59    30    31    ar
60    30    59    1
61    31    60    1
62    32    33    ar
63    32    61    1
64    33    62    1
@<TRIPOS>SUBSTRUCTURE
1   ZINC000022735258 1     RESIDUE    1   A     ZIN   1
