REMARK  10 active torsions:
REMARK  status: ('A' for Active; 'I' for Inactive)
REMARK    1  A    between atoms: C2_2  and  C3_3 
REMARK    2  A    between atoms: C3_3  and  C4_4 
REMARK    3  A    between atoms: C3_3  and  C6_6 
REMARK    4  A    between atoms: N9_9  and  C10_10 
REMARK    5  A    between atoms: C10_10  and  C11_11 
REMARK    6  A    between atoms: C10_10  and  C21_21 
REMARK    7  A    between atoms: C11_11  and  C13_13 
REMARK    8  A    between atoms: N23_23  and  C24_24 
REMARK    9  A    between atoms: C24_24  and  C25_25 
REMARK   10  A    between atoms: C25_25  and  C26_26 
ROOT
ATOM      1  C10 ZIN AC000      -1.359  -6.222   0.450  0.00  0.00     0.224 C 
ENDROOT
BRANCH   1   2
ATOM      2  N9  ZIN AC000      -1.378  -4.761   0.338  0.00  0.00    -0.348 N 
ATOM      3  C8  ZIN AC000      -0.785  -4.189  -0.691  0.00  0.00     0.092 A 
ATOM      4  C7  ZIN AC000      -0.783  -2.813  -0.831  0.00  0.00     0.025 A 
ATOM      5  C6  ZIN AC000      -1.414  -2.036   0.129  0.00  0.00    -0.051 A 
ATOM      6  C33 ZIN AC000      -2.021  -2.674   1.200  0.00  0.00     0.025 A 
ATOM      7  C32 ZIN AC000      -1.988  -4.053   1.269  0.00  0.00     0.092 A 
BRANCH   5   8
ATOM      8  C3  ZIN AC000      -1.433  -0.534   0.013  0.00  0.00     0.018 C 
BRANCH   8   9
ATOM      9  C2  ZIN AC000       0.002  -0.004   0.002  0.00  0.00     0.005 C 
ATOM     10  C1  ZIN AC000      -0.019   1.526   0.010  0.00  0.00     0.006 C 
ENDBRANCH   8   9
BRANCH   8  11
ATOM     11  C4  ZIN AC000      -2.135  -0.131  -1.286  0.00  0.00     0.005 C 
ATOM     12  C5  ZIN AC000      -3.605  -0.552  -1.222  0.00  0.00     0.006 C 
ENDBRANCH   8  11
ENDBRANCH   5   8
ENDBRANCH   1   2
BRANCH   1  13
ATOM     13  C11 ZIN AC000      -0.674  -6.618   1.733  0.00  0.00     0.189 C 
ATOM     14  O12 ZIN AC000      -1.331  -6.839   2.728  0.00  0.00    -0.290 OA
BRANCH  13  15
ATOM     15  C13 ZIN AC000       0.791  -6.736   1.778  0.00  0.00     0.014 A 
ATOM     16  C20 ZIN AC000       1.430  -7.104   2.967  0.00  0.00     0.040 A 
ATOM     17  C18 ZIN AC000       2.804  -7.217   3.001  0.00  0.00     0.056 A 
ATOM     18  C16 ZIN AC000       3.552  -6.957   1.862  0.00  0.00     0.055 A 
ATOM     19 Cl19 ZIN AC000       3.600  -7.679   4.473  0.00  0.00    -0.083 Cl
ATOM     20  C15 ZIN AC000       2.926  -6.588   0.683  0.00  0.00     0.026 A 
ATOM     21 Cl17 ZIN AC000       5.282  -7.096   1.914  0.00  0.00    -0.083 Cl
ATOM     22  C14 ZIN AC000       1.553  -6.476   0.634  0.00  0.00     0.017 A 
ENDBRANCH  13  15
ENDBRANCH   1  13
BRANCH   1  23
ATOM     23  C21 ZIN AC000      -2.773  -6.744   0.453  0.00  0.00     0.104 C 
ATOM     24  S22 ZIN AC000      -4.001  -5.726   0.344  0.00  0.00    -0.063 SA
ATOM     25  N23 ZIN AC000      -3.002  -8.069   0.549  0.00  0.00    -0.382 N 
ATOM     26  H51 ZIN AC000      -2.256  -8.686   0.616  0.00  0.00     0.160 HD
BRANCH  25  27
ATOM     27  C24 ZIN AC000      -4.376  -8.576   0.552  0.00  0.00     0.125 C 
BRANCH  27  28
ATOM     28  C25 ZIN AC000      -4.356 -10.102   0.669  0.00  0.00     0.058 C 
BRANCH  28  29
ATOM     29  C26 ZIN AC000      -5.769 -10.624   0.673  0.00  0.00    -0.057 A 
ATOM     30  C31 ZIN AC000      -6.387 -10.955  -0.519  0.00  0.00     0.007 A 
ATOM     31  C30 ZIN AC000      -7.682 -11.438  -0.516  0.00  0.00     0.001 A 
ATOM     32  C29 ZIN AC000      -8.363 -11.581   0.679  0.00  0.00     0.000 A 
ATOM     33  C28 ZIN AC000      -7.747 -11.245   1.870  0.00  0.00     0.001 A 
ATOM     34  C27 ZIN AC000      -6.451 -10.767   1.867  0.00  0.00     0.007 A 
ENDBRANCH  28  29
ENDBRANCH  27  28
ENDBRANCH  25  27
ENDBRANCH   1  23
TORSDOF 10
