REMARK  7 active torsions:
REMARK  status: ('A' for Active; 'I' for Inactive)
REMARK    1  A    between atoms: C5_5  and  C6_6 
REMARK    2  A    between atoms: C6_6  and  C8_8 
REMARK    3  A    between atoms: C8_8  and  C9_9 
REMARK    4  A    between atoms: C8_8  and  N20_20 
REMARK    5  A    between atoms: N11_11  and  C12_12 
REMARK    6  A    between atoms: C23_23  and  C24_24 
REMARK    7  A    between atoms: C31_31  and  N32_32 
ROOT
ATOM      1  C8  ZIN AC000       0.185  -4.754  -2.244  0.00  0.00     0.224 C 
ENDROOT
BRANCH   1   2
ATOM      2  C6  ZIN AC000      -0.145  -4.461  -0.803  0.00  0.00     0.189 C 
ATOM      3  O7  ZIN AC000      -0.299  -5.373  -0.019  0.00  0.00    -0.290 OA
BRANCH   2   4
ATOM      4  C5  ZIN AC000      -0.281  -3.068  -0.348  0.00  0.00     0.015 A 
ATOM      5  C4  ZIN AC000      -0.104  -2.014  -1.249  0.00  0.00     0.016 A 
ATOM      6  C3  ZIN AC000      -0.233  -0.711  -0.814  0.00  0.00     0.010 A 
ATOM      7  C2  ZIN AC000      -0.536  -0.447   0.510  0.00  0.00    -0.029 A 
ATOM      8  C1  ZIN AC000      -0.675   0.980   0.976  0.00  0.00     0.050 C 
ATOM      9  C31 ZIN AC000      -0.707  -1.485   1.409  0.00  0.00     0.109 A 
ATOM     10  C30 ZIN AC000      -0.587  -2.792   0.989  0.00  0.00     0.051 A 
BRANCH   9  11
ATOM     11  N32 ZIN AC000      -1.031  -1.191   2.823  0.00  0.00    -0.115 N 
ATOM     12  O33 ZIN AC000      -0.509  -0.244   3.383  0.00  0.00    -0.532 OA
ATOM     13  O34 ZIN AC000      -1.820  -1.896   3.426  0.00  0.00    -0.532 OA
ENDBRANCH   9  11
ENDBRANCH   2   4
ENDBRANCH   1   2
BRANCH   1  14
ATOM     14  C9  ZIN AC000       0.855  -6.100  -2.342  0.00  0.00     0.109 C 
ATOM     15  S10 ZIN AC000       0.085  -7.329  -3.015  0.00  0.00    -0.062 SA
ATOM     16  N11 ZIN AC000       2.104  -6.268  -1.863  0.00  0.00    -0.348 N 
ATOM     17  H41 ZIN AC000       2.538  -5.548  -1.379  0.00  0.00     0.166 HD
BRANCH  16  18
ATOM     18  C12 ZIN AC000       2.773  -7.481  -2.064  0.00  0.00     0.034 A 
ATOM     19  C19 ZIN AC000       3.546  -8.024  -1.046  0.00  0.00     0.056 A 
ATOM     20  C17 ZIN AC000       4.202  -9.224  -1.245  0.00  0.00     0.074 A 
ATOM     21  C15 ZIN AC000       4.097  -9.879  -2.462  0.00  0.00     0.138 A 
ATOM     22 Cl18 ZIN AC000       5.165  -9.908   0.028  0.00  0.00    -0.081 Cl
ATOM     23  C14 ZIN AC000       3.330  -9.336  -3.478  0.00  0.00     0.046 A 
ATOM     24  F16 ZIN AC000       4.743 -11.050  -2.657  0.00  0.00    -0.204 F 
ATOM     25  C13 ZIN AC000       2.669  -8.139  -3.282  0.00  0.00     0.032 A 
ENDBRANCH  16  18
ENDBRANCH   1  14
BRANCH   1  26
ATOM     26  N20 ZIN AC000      -1.048  -4.763  -3.035  0.00  0.00    -0.348 N 
ATOM     27  C29 ZIN AC000      -1.178  -3.908  -4.031  0.00  0.00     0.092 A 
ATOM     28  C28 ZIN AC000      -2.325  -3.890  -4.802  0.00  0.00     0.025 A 
ATOM     29  C23 ZIN AC000      -3.348  -4.779  -4.512  0.00  0.00    -0.048 A 
ATOM     30  C22 ZIN AC000      -3.177  -5.660  -3.454  0.00  0.00     0.025 A 
ATOM     31  C21 ZIN AC000      -2.000  -5.622  -2.731  0.00  0.00     0.092 A 
BRANCH  29  32
ATOM     32  C24 ZIN AC000      -4.617  -4.788  -5.325  0.00  0.00    -0.024 C 
ATOM     33  C25 ZIN AC000      -5.809  -4.490  -4.414  0.00  0.00     0.019 C 
ATOM     34  C26 ZIN AC000      -4.529  -3.720  -6.417  0.00  0.00     0.019 C 
ATOM     35  C27 ZIN AC000      -4.799  -6.163  -5.971  0.00  0.00     0.019 C 
ENDBRANCH  29  32
ENDBRANCH   1  26
TORSDOF 7
