MODEL 1
REMARK VINA RESULT:     -9.45      0.000      0.000
REMARK  7 active torsions:
REMARK  status: ('A' for Active; 'I' for Inactive)
REMARK    1  A    between atoms: C5_5  and  C6_6 
REMARK    2  A    between atoms: C6_6  and  C8_8 
REMARK    3  A    between atoms: C8_8  and  C9_9 
REMARK    4  A    between atoms: C8_8  and  N20_20 
REMARK    5  A    between atoms: N11_11  and  C12_12 
REMARK    6  A    between atoms: C23_23  and  C24_24 
REMARK    7  A    between atoms: C31_31  and  N32_32 
ROOT
ATOM      1  C8  ZIN AC000     -10.853  16.498  67.647  0.00  0.00     0.224 C 
ENDROOT
BRANCH   1   2
ATOM      2  C6  ZIN AC000     -10.349  16.093  69.008  0.00  0.00     0.189 C 
ATOM      3  O7  ZIN AC000      -9.247  16.441  69.375  0.00  0.00    -0.290 OA
BRANCH   2   4
ATOM      4  C5  ZIN AC000     -11.195  15.276  69.893  0.00  0.00     0.015 A 
ATOM      5  C4  ZIN AC000     -11.557  13.979  69.517  0.00  0.00     0.016 A 
ATOM      6  C3  ZIN AC000     -12.350  13.219  70.352  0.00  0.00     0.010 A 
ATOM      7  C2  ZIN AC000     -12.788  13.739  71.557  0.00  0.00    -0.029 A 
ATOM      8  C1  ZIN AC000     -13.655  12.901  72.463  0.00  0.00     0.050 C 
ATOM      9  C31 ZIN AC000     -12.439  15.024  71.933  0.00  0.00     0.109 A 
ATOM     10  C30 ZIN AC000     -11.642  15.793  71.113  0.00  0.00     0.051 A 
BRANCH   9  11
ATOM     11  N32 ZIN AC000     -12.913  15.570  73.225  0.00  0.00    -0.115 N 
ATOM     12  O33 ZIN AC000     -12.267  15.380  74.240  0.00  0.00    -0.532 OA
ATOM     13  O34 ZIN AC000     -13.948  16.209  73.272  0.00  0.00    -0.532 OA
ENDBRANCH   9  11
ENDBRANCH   2   4
ENDBRANCH   1   2
BRANCH   1  14
ATOM     14  C9  ZIN AC000      -9.924  17.525  67.053  0.00  0.00     0.109 C 
ATOM     15  S10 ZIN AC000     -10.507  18.686  66.122  0.00  0.00    -0.062 SA
ATOM     16  N11 ZIN AC000      -8.601  17.465  67.306  0.00  0.00    -0.348 N 
ATOM     17  H41 ZIN AC000      -8.236  16.713  67.799  0.00  0.00     0.166 HD
BRANCH  16  18
ATOM     18  C12 ZIN AC000      -7.756  18.486  66.858  0.00  0.00     0.034 A 
ATOM     19  C19 ZIN AC000      -7.083  18.350  65.651  0.00  0.00     0.056 A 
ATOM     20  C17 ZIN AC000      -6.252  19.362  65.209  0.00  0.00     0.074 A 
ATOM     21  C15 ZIN AC000      -6.083  20.506  65.973  0.00  0.00     0.138 A 
ATOM     22 Cl18 ZIN AC000      -5.413  19.197  63.697  0.00  0.00    -0.081 Cl
ATOM     23  C14 ZIN AC000      -6.751  20.640  67.178  0.00  0.00     0.046 A 
ATOM     24  F16 ZIN AC000      -5.267  21.493  65.541  0.00  0.00    -0.204 F 
ATOM     25  C13 ZIN AC000      -7.586  19.633  67.622  0.00  0.00     0.032 A 
ENDBRANCH  16  18
ENDBRANCH   1  14
BRANCH   1  26
ATOM     26  N20 ZIN AC000     -10.902  15.321  66.775  0.00  0.00    -0.348 N 
ATOM     27  C29 ZIN AC000     -12.074  14.875  66.365  0.00  0.00     0.092 A 
ATOM     28  C28 ZIN AC000     -12.159  13.770  65.538  0.00  0.00     0.025 A 
ATOM     29  C23 ZIN AC000     -10.996  13.126  65.149  0.00  0.00    -0.048 A 
ATOM     30  C22 ZIN AC000      -9.782  13.621  65.605  0.00  0.00     0.025 A 
ATOM     31  C21 ZIN AC000      -9.776  14.733  66.425  0.00  0.00     0.092 A 
BRANCH  29  32
ATOM     32  C24 ZIN AC000     -11.046  11.915  64.253  0.00  0.00    -0.024 C 
ATOM     33  C25 ZIN AC000      -9.928  12.003  63.213  0.00  0.00     0.019 C 
ATOM     34  C26 ZIN AC000     -10.862  10.651  65.096  0.00  0.00     0.019 C 
ATOM     35  C27 ZIN AC000     -12.401  11.861  63.544  0.00  0.00     0.019 C 
ENDBRANCH  29  32
ENDBRANCH   1  26
TORSDOF 7
ENDMDL
