@<TRIPOS>MOLECULE
ZINC000022730538
59    62    1     0     0
SMALL
USER_CHARGES
@<TRIPOS>ATOM
1      C1     -0.6749    0.9794    0.9766 C.3      1 ZINC000022730538   -0.1400
2      C2     -0.5363   -0.4468    0.5100 C.ar     1 ZINC000022730538    0.0300
3      C3     -0.2326   -0.7114   -0.8139 C.ar     1 ZINC000022730538   -0.1200
4      C4     -0.1042   -2.0138   -1.2487 C.ar     1 ZINC000022730538   -0.0400
5      C5     -0.2812   -3.0684   -0.3476 C.ar     1 ZINC000022730538   -0.1900
6      C6     -0.1454   -4.4612   -0.8032 C.2      1 ZINC000022730538    0.3900
7      O7     -0.2995   -5.3733   -0.0193 O.2      1 ZINC000022730538   -0.3700
8      C8      0.1853   -4.7538   -2.2441 C.3      1 ZINC000022730538    0.0600
9      C9      0.8553   -6.1001   -2.3423 C.2      1 ZINC000022730538    0.2200
10     S10     0.0851   -7.3293   -3.0152 S.2      1 ZINC000022730538   -0.3300
11     N11     2.1037   -6.2681   -1.8630 N.am     1 ZINC000022730538   -0.5600
12     C12     2.7729   -7.4808   -2.0634 C.ar     1 ZINC000022730538    0.0700
13     C13     2.6689   -8.1393   -3.2817 C.ar     1 ZINC000022730538   -0.0500
14     C14     3.3301   -9.3359   -3.4774 C.ar     1 ZINC000022730538   -0.1400
15     C15     4.0960   -9.8794   -2.4597 C.ar     1 ZINC000022730538    0.1300
16     F16     4.7420  -11.0500   -2.6532 F        1 ZINC000022730538   -0.1200
17     C17     4.2011   -9.2244   -1.2442 C.ar     1 ZINC000022730538   -0.1400
18     C18     3.5465   -8.0244   -1.0463 C.ar     1 ZINC000022730538   -0.0700
19     N19    -1.0473   -4.7629   -3.0359 N.ar     1 ZINC000022730538   -0.3400
20     C20    -1.9998   -5.6224   -2.7312 C.ar     1 ZINC000022730538    0.1800
21     C21    -3.1764   -5.6598   -3.4553 C.ar     1 ZINC000022730538   -0.1200
22     C22    -3.3473   -4.7791   -4.5125 C.ar     1 ZINC000022730538    0.0600
23     C23    -4.6157   -4.7877   -5.3263 C.3      1 ZINC000022730538   -0.0600
24     C24    -5.6130   -3.8394   -4.7123 C.ar     1 ZINC000022730538   -0.1000
25     C25    -6.4952   -4.2923   -3.7493 C.ar     1 ZINC000022730538   -0.1100
26     C26    -7.4100   -3.4224   -3.1860 C.ar     1 ZINC000022730538   -0.1100
27     C27    -7.4423   -2.0994   -3.5855 C.ar     1 ZINC000022730538   -0.1100
28     C28    -6.5595   -1.6463   -4.5479 C.ar     1 ZINC000022730538   -0.1200
29     C29    -5.6418   -2.5152   -5.1080 C.ar     1 ZINC000022730538   -0.1100
30     C30    -2.3238   -3.8900   -4.8028 C.ar     1 ZINC000022730538   -0.1200
31     C31    -1.1774   -3.9076   -4.0311 C.ar     1 ZINC000022730538    0.1200
32     C32    -0.5875   -2.7927    0.9890 C.ar     1 ZINC000022730538    0.0200
33     C33    -0.7079   -1.4852    1.4092 C.ar     1 ZINC000022730538   -0.0400
34     N34    -1.0320   -1.1912    2.8231 N.pl3    1 ZINC000022730538    0.0100
35     O35    -0.5095   -0.2443    3.3834 O.2      1 ZINC000022730538   -0.1200
36     O36    -1.8212   -1.8961    3.4263 O.2      1 ZINC000022730538   -0.1400
37     H37     0.2693    1.3147    1.4057 H        1 ZINC000022730538    0.1100
38     H38    -0.9354    1.6149    0.1302 H        1 ZINC000022730538    0.0900
39     H39    -1.4589    1.0401    1.7315 H        1 ZINC000022730538    0.0900
40     H40    -0.0962    0.1042   -1.5086 H        1 ZINC000022730538    0.1700
41     H41     0.1322   -2.2188   -2.2824 H        1 ZINC000022730538    0.1400
42     H42     0.8569   -3.9850   -2.6261 H        1 ZINC000022730538    0.1800
43     H43     2.5384   -5.5485   -1.3791 H        1 ZINC000022730538    0.4200
44     H44     2.0711   -7.7161   -4.0754 H        1 ZINC000022730538    0.1500
45     H45     3.2494   -9.8484   -4.4246 H        1 ZINC000022730538    0.1500
46     H46     4.7987   -9.6501   -0.4517 H        1 ZINC000022730538    0.1500
47     H47     3.6290   -7.5137   -0.0983 H        1 ZINC000022730538    0.1400
48     H48    -1.8588   -6.3053   -1.9064 H        1 ZINC000022730538    0.2000
49     H49    -3.9527   -6.3662   -3.2011 H        1 ZINC000022730538    0.1900
50     H50    -4.3951   -4.4728   -6.3462 H        1 ZINC000022730538    0.1100
51     H51    -5.0323   -5.7949   -5.3391 H        1 ZINC000022730538    0.1100
52     H52    -6.4699   -5.3259   -3.4372 H        1 ZINC000022730538    0.1300
53     H53    -8.0997   -3.7764   -2.4341 H        1 ZINC000022730538    0.1300
54     H54    -8.1575   -1.4199   -3.1460 H        1 ZINC000022730538    0.1300
55     H55    -6.5849   -0.6127   -4.8602 H        1 ZINC000022730538    0.1300
56     H56    -4.9521   -2.1611   -5.8599 H        1 ZINC000022730538    0.1200
57     H57    -2.4226   -3.1902   -5.6195 H        1 ZINC000022730538    0.1900
58     H58    -0.3755   -3.2183   -4.2508 H        1 ZINC000022730538    0.2000
59     H59    -0.7261   -3.6019    1.6907 H        1 ZINC000022730538    0.1700
@<TRIPOS>BOND
1     1     2     1
2     1     37    1
3     1     38    1
4     1     39    1
5     2     33    ar
6     2     3     ar
7     3     4     ar
8     3     40    1
9     4     5     ar
10    4     41    1
11    5     6     1
12    5     32    ar
13    6     7     2
14    6     8     1
15    8     9     1
16    8     19    1
17    8     42    1
18    9     10    2
19    9     11    am
20    11    12    1
21    11    43    1
22    12    18    ar
23    12    13    ar
24    13    14    ar
25    13    44    1
26    14    15    ar
27    14    45    1
28    15    16    1
29    15    17    ar
30    17    18    ar
31    17    46    1
32    18    47    1
33    19    31    ar
34    19    20    ar
35    20    21    ar
36    20    48    1
37    21    22    ar
38    21    49    1
39    22    23    1
40    22    30    ar
41    23    24    1
42    23    50    1
43    23    51    1
44    24    29    ar
45    24    25    ar
46    25    26    ar
47    25    52    1
48    26    27    ar
49    26    53    1
50    27    28    ar
51    27    54    1
52    28    29    ar
53    28    55    1
54    29    56    1
55    30    31    ar
56    30    57    1
57    31    58    1
58    32    33    ar
59    32    59    1
60    33    34    1
61    34    35    2
62    34    36    2
@<TRIPOS>SUBSTRUCTURE
1   ZINC000022730538 1     RESIDUE    1   A     ZIN   1
