MODEL 1
REMARK VINA RESULT:     -9.95      0.000      0.000
REMARK  7 active torsions:
REMARK  status: ('A' for Active; 'I' for Inactive)
REMARK    1  A    between atoms: C2_2  and  O3_3 
REMARK    2  A    between atoms: O3_3  and  C4_4 
REMARK    3  A    between atoms: C7_7  and  C8_8 
REMARK    4  A    between atoms: C8_8  and  C10_10 
REMARK    5  A    between atoms: C10_10  and  C11_11 
REMARK    6  A    between atoms: C10_10  and  N22_22 
REMARK    7  A    between atoms: N13_13  and  C14_14 
ROOT
ATOM      1  C10 ZIN AC000     -10.911  10.931  69.403  0.00  0.00     0.224 C 
ENDROOT
BRANCH   1   2
ATOM      2  C8  ZIN AC000     -12.292  11.174  69.954  0.00  0.00     0.189 C 
ATOM      3  O9  ZIN AC000     -13.164  10.348  69.788  0.00  0.00    -0.290 OA
BRANCH   2   4
ATOM      4  C7  ZIN AC000     -12.581  12.410  70.692  0.00  0.00     0.012 A 
ATOM      5  C6  ZIN AC000     -13.406  12.376  71.823  0.00  0.00     0.018 A 
ATOM      6  C5  ZIN AC000     -13.673  13.533  72.509  0.00  0.00     0.037 A 
ATOM      7  C4  ZIN AC000     -13.126  14.739  72.084  0.00  0.00     0.068 A 
ATOM      8  C33 ZIN AC000     -12.311  14.778  70.958  0.00  0.00     0.037 A 
ATOM      9  C32 ZIN AC000     -12.034  13.626  70.267  0.00  0.00     0.018 A 
BRANCH   7  10
ATOM     10  O3  ZIN AC000     -13.394  15.881  72.765  0.00  0.00    -0.352 OA
BRANCH  10  11
ATOM     11  C2  ZIN AC000     -12.333  16.436  73.544  0.00  0.00     0.171 C 
ATOM     12  C1  ZIN AC000     -12.405  15.884  74.969  0.00  0.00     0.034 C 
ENDBRANCH  10  11
ENDBRANCH   7  10
ENDBRANCH   2   4
ENDBRANCH   1   2
BRANCH   1  13
ATOM     13  C11 ZIN AC000     -10.468   9.534  69.754  0.00  0.00     0.109 C 
ATOM     14  S12 ZIN AC000      -8.979   9.274  70.275  0.00  0.00    -0.062 SA
ATOM     15  N13 ZIN AC000     -11.327   8.502  69.629  0.00  0.00    -0.347 N 
ATOM     16  H42 ZIN AC000     -12.207   8.648  69.250  0.00  0.00     0.166 HD
BRANCH  15  17
ATOM     17  C14 ZIN AC000     -10.948   7.222  70.046  0.00  0.00     0.055 A 
ATOM     18  C20 ZIN AC000     -11.072   6.859  71.382  0.00  0.00     0.062 A 
ATOM     19  C19 ZIN AC000     -10.701   5.592  71.789  0.00  0.00     0.050 A 
ATOM     20 Cl21 ZIN AC000     -11.705   7.992  72.535  0.00  0.00    -0.082 Cl
ATOM     21  C17 ZIN AC000     -10.197   4.688  70.870  0.00  0.00     0.035 A 
ATOM     22  C16 ZIN AC000     -10.066   5.049  69.541  0.00  0.00     0.026 A 
ATOM     23 Cl18 ZIN AC000      -9.726   3.099  71.386  0.00  0.00    -0.084 Cl
ATOM     24  C15 ZIN AC000     -10.440   6.313  69.126  0.00  0.00     0.033 A 
ENDBRANCH  15  17
ENDBRANCH   1  13
BRANCH   1  25
ATOM     25  N22 ZIN AC000     -10.932  11.085  67.946  0.00  0.00    -0.347 N 
ATOM     26  C31 ZIN AC000     -11.644  12.056  67.413  0.00  0.00     0.099 A 
ATOM     27  C30 ZIN AC000     -11.687  12.240  66.039  0.00  0.00    -0.036 A 
ATOM     28  C25 ZIN AC000     -10.973  11.382  65.229  0.00  0.00    -0.049 A 
ATOM     29  C29 ZIN AC000     -12.518  13.368  65.490  0.00  0.00     0.040 C 
ATOM     30  C24 ZIN AC000     -10.240  10.363  65.825  0.00  0.00     0.025 A 
ATOM     31  C26 ZIN AC000     -10.949  11.508  63.730  0.00  0.00     0.039 C 
ATOM     32  C23 ZIN AC000     -10.242  10.244  67.201  0.00  0.00     0.092 A 
ATOM     33  C27 ZIN AC000     -12.112  12.375  63.248  0.00  0.00     0.005 C 
ATOM     34  C28 ZIN AC000     -12.110  13.682  64.052  0.00  0.00     0.005 C 
ENDBRANCH   1  25
TORSDOF 7
ENDMDL
