@<TRIPOS>MOLECULE
ZINC000022734839
62    64    1     0     0
SMALL
USER_CHARGES
@<TRIPOS>ATOM
1      C1     -0.0187    1.5258    0.0104 C.3      1 ZINC000022734839   -0.1600
2      C2      0.0021   -0.0041    0.0020 C.3      1 ZINC000022734839   -0.1200
3      C3      0.7182   -0.4975   -1.2568 C.3      1 ZINC000022734839   -0.0700
4      C4      2.1873   -0.0730   -1.2073 C.3      1 ZINC000022734839   -0.1200
5      C5      2.8736   -0.4567   -2.5198 C.3      1 ZINC000022734839   -0.1600
6      C6      0.6316   -2.0003   -1.3275 C.ar     1 ZINC000022734839    0.0700
7      C7      1.1592   -2.7900   -0.3173 C.ar     1 ZINC000022734839   -0.1200
8      C8      1.0611   -4.1649   -0.4165 C.ar     1 ZINC000022734839    0.1200
9      N9      0.4751   -4.7261   -1.4560 N.ar     1 ZINC000022734839   -0.3300
10     C10     0.3910   -6.1871   -1.5248 C.3      1 ZINC000022734839    0.0600
11     C11    -1.0559   -6.6048   -1.5810 C.2      1 ZINC000022734839    0.3800
12     O12    -1.5857   -6.8132   -2.6518 O.2      1 ZINC000022734839   -0.3600
13     C13    -1.8250   -6.7598   -0.3380 C.ar     1 ZINC000022734839   -0.1800
14     C14    -1.2188   -6.5149    0.8991 C.ar     1 ZINC000022734839   -0.0600
15     C15    -1.9459   -6.6622    2.0602 C.ar     1 ZINC000022734839   -0.1100
16     C16    -3.2748   -7.0521    2.0059 C.ar     1 ZINC000022734839    0.0200
17     Cl17   -4.1819   -7.2342    3.4748 Cl       1 ZINC000022734839   -0.0200
18     C18    -3.8830   -7.2967    0.7858 C.ar     1 ZINC000022734839   -0.1100
19     C19    -3.1699   -7.1480   -0.3861 C.ar     1 ZINC000022734839    0.0400
20     Cl20   -3.9335   -7.4543   -1.9147 Cl       1 ZINC000022734839    0.0000
21     C21     1.1027   -6.6736   -2.7608 C.2      1 ZINC000022734839    0.2300
22     S22     1.7959   -5.6251   -3.7492 S.2      1 ZINC000022734839   -0.3700
23     N23     1.1550   -7.9925   -3.0332 N.am     1 ZINC000022734839   -0.6100
24     C24     1.8469   -8.4655   -4.2347 C.3      1 ZINC000022734839    0.1100
25     C25     1.7591   -9.9913   -4.3066 C.3      1 ZINC000022734839   -0.0900
26     C26     2.4708  -10.4778   -5.5426 C.ar     1 ZINC000022734839   -0.1000
27     C27     1.7792  -10.6076   -6.7324 C.ar     1 ZINC000022734839   -0.1100
28     C28     2.4321  -11.0539   -7.8662 C.ar     1 ZINC000022734839   -0.1200
29     C29     3.7766  -11.3699   -7.8103 C.ar     1 ZINC000022734839   -0.1100
30     C30     4.4685  -11.2393   -6.6207 C.ar     1 ZINC000022734839   -0.1200
31     C31     3.8166  -10.7889   -5.4879 C.ar     1 ZINC000022734839   -0.1100
32     C32    -0.0376   -4.0067   -2.4351 C.ar     1 ZINC000022734839    0.1800
33     C33     0.0175   -2.6261   -2.4016 C.ar     1 ZINC000022734839   -0.1300
34     H34     1.0039    1.9031    0.0027 H        1 ZINC000022734839    0.0600
35     H35    -0.5459    1.8868   -0.8726 H        1 ZINC000022734839    0.0600
36     H36    -0.5289    1.8773    0.9072 H        1 ZINC000022734839    0.0600
37     H37     0.5293   -0.3651    0.8851 H        1 ZINC000022734839    0.0700
38     H38    -1.0205   -0.3814    0.0098 H        1 ZINC000022734839    0.0700
39     H39     0.2444   -0.0644   -2.1377 H        1 ZINC000022734839    0.1000
40     H40     2.2492    1.0061   -1.0668 H        1 ZINC000022734839    0.0900
41     H41     2.6832   -0.5765   -0.3773 H        1 ZINC000022734839    0.0700
42     H42     3.9202   -0.1543   -2.4845 H        1 ZINC000022734839    0.0700
43     H43     2.8117   -1.5358   -2.6603 H        1 ZINC000022734839    0.0500
44     H44     2.3777    0.0468   -3.3497 H        1 ZINC000022734839    0.0600
45     H45     1.6409   -2.3363    0.5363 H        1 ZINC000022734839    0.1900
46     H46     1.4695   -4.7870    0.3662 H        1 ZINC000022734839    0.2000
47     H47     0.8601   -6.6200   -0.6413 H        1 ZINC000022734839    0.1800
48     H48    -0.1833   -6.2113    0.9438 H        1 ZINC000022734839    0.1400
49     H49    -1.4788   -6.4737    3.0155 H        1 ZINC000022734839    0.1600
50     H50    -4.9189   -7.6002    0.7514 H        1 ZINC000022734839    0.1600
51     H51     0.7345   -8.6286   -2.4336 H        1 ZINC000022734839    0.4100
52     H52     1.3778   -8.0326   -5.1183 H        1 ZINC000022734839    0.1100
53     H53     2.8934   -8.1633   -4.1941 H        1 ZINC000022734839    0.1000
54     H54     2.2282  -10.4242   -3.4230 H        1 ZINC000022734839    0.0800
55     H55     0.7126  -10.2934   -4.3472 H        1 ZINC000022734839    0.0800
56     H56     0.7287  -10.3607   -6.7761 H        1 ZINC000022734839    0.1200
57     H57     1.8916  -11.1560   -8.7957 H        1 ZINC000022734839    0.1300
58     H58     4.2866  -11.7193   -8.6959 H        1 ZINC000022734839    0.1300
59     H59     5.5189  -11.4865   -6.5769 H        1 ZINC000022734839    0.1300
60     H60     4.3571  -10.6868   -4.5585 H        1 ZINC000022734839    0.1200
61     H61    -0.5096   -4.5019   -3.2707 H        1 ZINC000022734839    0.2000
62     H62    -0.4045   -2.0423   -3.2063 H        1 ZINC000022734839    0.1900
@<TRIPOS>BOND
1     1     2     1
2     1     34    1
3     1     35    1
4     1     36    1
5     2     3     1
6     2     37    1
7     2     38    1
8     3     4     1
9     3     6     1
10    3     39    1
11    4     5     1
12    4     40    1
13    4     41    1
14    5     42    1
15    5     43    1
16    5     44    1
17    6     33    ar
18    6     7     ar
19    7     8     ar
20    7     45    1
21    8     9     ar
22    8     46    1
23    9     10    1
24    9     32    ar
25    10    11    1
26    10    21    1
27    10    47    1
28    11    12    2
29    11    13    1
30    13    19    ar
31    13    14    ar
32    14    15    ar
33    14    48    1
34    15    16    ar
35    15    49    1
36    16    17    1
37    16    18    ar
38    18    19    ar
39    18    50    1
40    19    20    1
41    21    22    2
42    21    23    am
43    23    24    1
44    23    51    1
45    24    25    1
46    24    52    1
47    24    53    1
48    25    26    1
49    25    54    1
50    25    55    1
51    26    31    ar
52    26    27    ar
53    27    28    ar
54    27    56    1
55    28    29    ar
56    28    57    1
57    29    30    ar
58    29    58    1
59    30    31    ar
60    30    59    1
61    31    60    1
62    32    33    ar
63    32    61    1
64    33    62    1
@<TRIPOS>SUBSTRUCTURE
1   ZINC000022734839 1     RESIDUE    1   A     ZIN   1
