REMARK  10 active torsions:
REMARK  status: ('A' for Active; 'I' for Inactive)
REMARK    1  A    between atoms: C2_2  and  C3_3 
REMARK    2  A    between atoms: C3_3  and  C4_4 
REMARK    3  A    between atoms: C3_3  and  C6_6 
REMARK    4  A    between atoms: N9_9  and  C10_10 
REMARK    5  A    between atoms: C10_10  and  C11_11 
REMARK    6  A    between atoms: C10_10  and  C21_21 
REMARK    7  A    between atoms: C11_11  and  C13_13 
REMARK    8  A    between atoms: N23_23  and  C24_24 
REMARK    9  A    between atoms: C24_24  and  C25_25 
REMARK   10  A    between atoms: C25_25  and  C26_26 
ROOT
ATOM      1  C10 ZIN AC000       0.391  -6.187  -1.525  0.00  0.00     0.224 C 
ENDROOT
BRANCH   1   2
ATOM      2  N9  ZIN AC000       0.475  -4.726  -1.456  0.00  0.00    -0.348 N 
ATOM      3  C8  ZIN AC000       1.061  -4.165  -0.416  0.00  0.00     0.092 A 
ATOM      4  C7  ZIN AC000       1.159  -2.790  -0.317  0.00  0.00     0.025 A 
ATOM      5  C6  ZIN AC000       0.632  -2.000  -1.327  0.00  0.00    -0.051 A 
ATOM      6  C33 ZIN AC000       0.018  -2.626  -2.402  0.00  0.00     0.025 A 
ATOM      7  C32 ZIN AC000      -0.038  -4.007  -2.435  0.00  0.00     0.092 A 
BRANCH   5   8
ATOM      8  C3  ZIN AC000       0.718  -0.497  -1.257  0.00  0.00     0.018 C 
BRANCH   8   9
ATOM      9  C2  ZIN AC000       0.002  -0.004   0.002  0.00  0.00     0.005 C 
ATOM     10  C1  ZIN AC000      -0.019   1.526   0.010  0.00  0.00     0.006 C 
ENDBRANCH   8   9
BRANCH   8  11
ATOM     11  C4  ZIN AC000       2.187  -0.073  -1.207  0.00  0.00     0.005 C 
ATOM     12  C5  ZIN AC000       2.874  -0.457  -2.520  0.00  0.00     0.006 C 
ENDBRANCH   8  11
ENDBRANCH   5   8
ENDBRANCH   1   2
BRANCH   1  13
ATOM     13  C11 ZIN AC000      -1.056  -6.605  -1.581  0.00  0.00     0.191 C 
ATOM     14  O12 ZIN AC000      -1.586  -6.813  -2.652  0.00  0.00    -0.290 OA
BRANCH  13  15
ATOM     15  C13 ZIN AC000      -1.825  -6.760  -0.338  0.00  0.00     0.034 A 
ATOM     16  C19 ZIN AC000      -3.170  -7.148  -0.386  0.00  0.00     0.049 A 
ATOM     17  C18 ZIN AC000      -3.883  -7.297   0.786  0.00  0.00     0.048 A 
ATOM     18 Cl20 ZIN AC000      -3.933  -7.454  -1.915  0.00  0.00    -0.083 Cl
ATOM     19  C16 ZIN AC000      -3.275  -7.052   2.006  0.00  0.00     0.035 A 
ATOM     20  C15 ZIN AC000      -1.946  -6.662   2.060  0.00  0.00     0.025 A 
ATOM     21 Cl17 ZIN AC000      -4.182  -7.234   3.475  0.00  0.00    -0.084 Cl
ATOM     22  C14 ZIN AC000      -1.219  -6.515   0.899  0.00  0.00     0.018 A 
ENDBRANCH  13  15
ENDBRANCH   1  13
BRANCH   1  23
ATOM     23  C21 ZIN AC000       1.103  -6.674  -2.761  0.00  0.00     0.104 C 
ATOM     24  S22 ZIN AC000       1.796  -5.625  -3.749  0.00  0.00    -0.063 SA
ATOM     25  N23 ZIN AC000       1.155  -7.992  -3.033  0.00  0.00    -0.382 N 
ATOM     26  H51 ZIN AC000       0.735  -8.629  -2.434  0.00  0.00     0.160 HD
BRANCH  25  27
ATOM     27  C24 ZIN AC000       1.847  -8.466  -4.235  0.00  0.00     0.125 C 
BRANCH  27  28
ATOM     28  C25 ZIN AC000       1.759  -9.991  -4.307  0.00  0.00     0.058 C 
BRANCH  28  29
ATOM     29  C26 ZIN AC000       2.471 -10.478  -5.543  0.00  0.00    -0.057 A 
ATOM     30  C31 ZIN AC000       3.817 -10.789  -5.488  0.00  0.00     0.007 A 
ATOM     31  C30 ZIN AC000       4.468 -11.239  -6.621  0.00  0.00     0.001 A 
ATOM     32  C29 ZIN AC000       3.777 -11.370  -7.810  0.00  0.00     0.000 A 
ATOM     33  C28 ZIN AC000       2.432 -11.054  -7.866  0.00  0.00     0.001 A 
ATOM     34  C27 ZIN AC000       1.779 -10.608  -6.732  0.00  0.00     0.007 A 
ENDBRANCH  28  29
ENDBRANCH  27  28
ENDBRANCH  25  27
ENDBRANCH   1  23
TORSDOF 10
