MODEL 1
REMARK VINA RESULT:     -9.17      0.000      0.000
REMARK  10 active torsions:
REMARK  status: ('A' for Active; 'I' for Inactive)
REMARK    1  A    between atoms: C2_2  and  C3_3 
REMARK    2  A    between atoms: C3_3  and  C4_4 
REMARK    3  A    between atoms: C3_3  and  C6_6 
REMARK    4  A    between atoms: N9_9  and  C10_10 
REMARK    5  A    between atoms: C10_10  and  C11_11 
REMARK    6  A    between atoms: C10_10  and  C21_21 
REMARK    7  A    between atoms: C11_11  and  C13_13 
REMARK    8  A    between atoms: N23_23  and  C24_24 
REMARK    9  A    between atoms: C24_24  and  C25_25 
REMARK   10  A    between atoms: C25_25  and  C26_26 
ROOT
ATOM      1  C10 ZIN AC000     -10.231  12.623  67.665  0.00  0.00     0.224 C 
ENDROOT
BRANCH   1   2
ATOM      2  N9  ZIN AC000     -11.082  13.007  68.793  0.00  0.00    -0.348 N 
ATOM      3  C8  ZIN AC000     -11.571  12.067  69.578  0.00  0.00     0.092 A 
ATOM      4  C7  ZIN AC000     -12.378  12.392  70.652  0.00  0.00     0.025 A 
ATOM      5  C6  ZIN AC000     -12.671  13.725  70.899  0.00  0.00    -0.051 A 
ATOM      6  C33 ZIN AC000     -12.143  14.685  70.048  0.00  0.00     0.025 A 
ATOM      7  C32 ZIN AC000     -11.340  14.284  68.996  0.00  0.00     0.092 A 
BRANCH   5   8
ATOM      8  C3  ZIN AC000     -13.546  14.121  72.060  0.00  0.00     0.018 C 
BRANCH   8   9
ATOM      9  C2  ZIN AC000     -12.672  14.404  73.283  0.00  0.00     0.005 C 
ATOM     10  C1  ZIN AC000     -12.828  15.871  73.692  0.00  0.00     0.006 C 
ENDBRANCH   8   9
BRANCH   8  11
ATOM     11  C4  ZIN AC000     -14.336  15.380  71.695  0.00  0.00     0.005 C 
ATOM     12  C5  ZIN AC000     -15.735  14.984  71.216  0.00  0.00     0.006 C 
ENDBRANCH   8  11
ENDBRANCH   5   8
ENDBRANCH   1   2
BRANCH   1  13
ATOM     13  C11 ZIN AC000     -11.080  12.006  66.582  0.00  0.00     0.191 C 
ATOM     14  O12 ZIN AC000     -12.284  12.153  66.599  0.00  0.00    -0.290 OA
BRANCH  13  15
ATOM     15  C13 ZIN AC000     -10.449  11.228  65.507  0.00  0.00     0.034 A 
ATOM     16  C19 ZIN AC000     -10.632  11.598  64.169  0.00  0.00     0.049 A 
ATOM     17  C18 ZIN AC000     -10.031  10.865  63.166  0.00  0.00     0.048 A 
ATOM     18 Cl20 ZIN AC000     -11.601  12.983  63.774  0.00  0.00    -0.083 Cl
ATOM     19  C16 ZIN AC000      -9.259   9.759  63.480  0.00  0.00     0.035 A 
ATOM     20  C15 ZIN AC000      -9.079   9.384  64.802  0.00  0.00     0.025 A 
ATOM     21 Cl17 ZIN AC000      -8.513   8.837  62.212  0.00  0.00    -0.084 Cl
ATOM     22  C14 ZIN AC000      -9.667  10.109  65.815  0.00  0.00     0.018 A 
ENDBRANCH  13  15
ENDBRANCH   1  13
BRANCH   1  23
ATOM     23  C21 ZIN AC000      -9.533  13.843  67.122  0.00  0.00     0.104 C 
ATOM     24  S22 ZIN AC000      -8.049  14.195  67.603  0.00  0.00    -0.063 SA
ATOM     25  N23 ZIN AC000     -10.159  14.638  66.233  0.00  0.00    -0.382 N 
ATOM     26  H51 ZIN AC000     -11.059  14.425  65.940  0.00  0.00     0.160 HD
BRANCH  25  27
ATOM     27  C24 ZIN AC000      -9.481  15.825  65.705  0.00  0.00     0.125 C 
BRANCH  27  28
ATOM     28  C25 ZIN AC000     -10.505  16.935  65.468  0.00  0.00     0.058 C 
BRANCH  28  29
ATOM     29  C26 ZIN AC000     -10.322  18.017  66.502  0.00  0.00    -0.057 A 
ATOM     30  C31 ZIN AC000     -10.236  19.340  66.110  0.00  0.00     0.007 A 
ATOM     31  C30 ZIN AC000     -10.072  20.332  67.059  0.00  0.00     0.001 A 
ATOM     32  C29 ZIN AC000      -9.985  20.001  68.397  0.00  0.00     0.000 A 
ATOM     33  C28 ZIN AC000     -10.065  18.677  68.788  0.00  0.00     0.001 A 
ATOM     34  C27 ZIN AC000     -10.234  17.685  67.840  0.00  0.00     0.007 A 
ENDBRANCH  28  29
ENDBRANCH  27  28
ENDBRANCH  25  27
ENDBRANCH   1  23
TORSDOF 10
ENDMDL
