REMARK  7 active torsions:
REMARK  status: ('A' for Active; 'I' for Inactive)
REMARK    1  A    between atoms: C2_2  and  O3_3 
REMARK    2  A    between atoms: O3_3  and  C4_4 
REMARK    3  A    between atoms: C7_7  and  C8_8 
REMARK    4  A    between atoms: C8_8  and  C10_10 
REMARK    5  A    between atoms: C10_10  and  C11_11 
REMARK    6  A    between atoms: C10_10  and  N22_22 
REMARK    7  A    between atoms: N13_13  and  C14_14 
ROOT
ATOM      1  C10 ZIN AC000       1.133  -6.212   2.317  0.00  0.00     0.224 C 
ENDROOT
BRANCH   1   2
ATOM      2  C8  ZIN AC000       0.723  -6.922   1.053  0.00  0.00     0.189 C 
ATOM      3  O9  ZIN AC000       1.176  -8.018   0.798  0.00  0.00    -0.290 OA
BRANCH   2   4
ATOM      4  C7  ZIN AC000      -0.225  -6.286   0.129  0.00  0.00     0.012 A 
ATOM      5  C6  ZIN AC000      -0.608  -6.943  -1.048  0.00  0.00     0.018 A 
ATOM      6  C5  ZIN AC000      -1.493  -6.345  -1.907  0.00  0.00     0.037 A 
ATOM      7  C4  ZIN AC000      -2.011  -5.089  -1.613  0.00  0.00     0.068 A 
ATOM      8  C33 ZIN AC000      -1.630  -4.429  -0.449  0.00  0.00     0.037 A 
ATOM      9  C32 ZIN AC000      -0.750  -5.021   0.420  0.00  0.00     0.018 A 
BRANCH   7  10
ATOM     10  O3  ZIN AC000      -2.886  -4.501  -2.467  0.00  0.00    -0.352 OA
BRANCH  10  11
ATOM     11  C2  ZIN AC000      -3.235  -5.233  -3.643  0.00  0.00     0.171 C 
ATOM     12  C1  ZIN AC000      -4.225  -4.417  -4.477  0.00  0.00     0.034 C 
ENDBRANCH  10  11
ENDBRANCH   7  10
ENDBRANCH   2   4
ENDBRANCH   1   2
BRANCH   1  13
ATOM     13  C11 ZIN AC000       0.187  -6.584   3.431  0.00  0.00     0.109 C 
ATOM     14  S12 ZIN AC000      -0.386  -5.452   4.404  0.00  0.00    -0.062 SA
ATOM     15  N13 ZIN AC000      -0.175  -7.870   3.606  0.00  0.00    -0.348 N 
ATOM     16  H42 ZIN AC000       0.237  -8.567   3.072  0.00  0.00     0.166 HD
BRANCH  15  17
ATOM     17  C14 ZIN AC000      -1.146  -8.200   4.557  0.00  0.00     0.036 A 
ATOM     18  C21 ZIN AC000      -2.283  -8.899   4.176  0.00  0.00     0.053 A 
ATOM     19  C19 ZIN AC000      -3.239  -9.228   5.120  0.00  0.00     0.037 A 
ATOM     20  C18 ZIN AC000      -3.068  -8.851   6.440  0.00  0.00     0.048 A 
ATOM     21 Cl20 ZIN AC000      -4.659 -10.107   4.646  0.00  0.00    -0.084 Cl
ATOM     22  C16 ZIN AC000      -1.938  -8.149   6.821  0.00  0.00     0.037 A 
ATOM     23  C15 ZIN AC000      -0.976  -7.823   5.883  0.00  0.00     0.053 A 
ATOM     24 Cl17 ZIN AC000      -1.727  -7.679   8.479  0.00  0.00    -0.084 Cl
ENDBRANCH  15  17
ENDBRANCH   1  13
BRANCH   1  25
ATOM     25  N22 ZIN AC000       2.495  -6.610   2.681  0.00  0.00    -0.347 N 
ATOM     26  C31 ZIN AC000       3.454  -5.707   2.662  0.00  0.00     0.099 A 
ATOM     27  C30 ZIN AC000       4.756  -6.040   3.004  0.00  0.00    -0.036 A 
ATOM     28  C25 ZIN AC000       5.040  -7.341   3.362  0.00  0.00    -0.049 A 
ATOM     29  C29 ZIN AC000       5.808  -4.964   2.964  0.00  0.00     0.040 C 
ATOM     30  C24 ZIN AC000       4.005  -8.269   3.363  0.00  0.00     0.025 A 
ATOM     31  C26 ZIN AC000       6.417  -7.795   3.758  0.00  0.00     0.039 C 
ATOM     32  C23 ZIN AC000       2.732  -7.863   3.013  0.00  0.00     0.092 A 
ATOM     33  C27 ZIN AC000       7.466  -6.784   3.296  0.00  0.00     0.005 C 
ATOM     34  C28 ZIN AC000       7.037  -5.389   3.765  0.00  0.00     0.005 C 
ENDBRANCH   1  25
TORSDOF 7
