MODEL 1
REMARK VINA RESULT:     -9.84      0.000      0.000
REMARK  7 active torsions:
REMARK  status: ('A' for Active; 'I' for Inactive)
REMARK    1  A    between atoms: C2_2  and  O3_3 
REMARK    2  A    between atoms: O3_3  and  C4_4 
REMARK    3  A    between atoms: C7_7  and  C8_8 
REMARK    4  A    between atoms: C8_8  and  C10_10 
REMARK    5  A    between atoms: C10_10  and  C11_11 
REMARK    6  A    between atoms: C10_10  and  N22_22 
REMARK    7  A    between atoms: N13_13  and  C14_14 
ROOT
ATOM      1  C10 ZIN AC000     -10.893  10.801  69.542  0.00  0.00     0.224 C 
ENDROOT
BRANCH   1   2
ATOM      2  C8  ZIN AC000     -12.272  11.060  70.091  0.00  0.00     0.189 C 
ATOM      3  O9  ZIN AC000     -13.141  10.223  69.971  0.00  0.00    -0.290 OA
BRANCH   2   4
ATOM      4  C7  ZIN AC000     -12.564  12.328  70.772  0.00  0.00     0.012 A 
ATOM      5  C6  ZIN AC000     -11.998  13.523  70.307  0.00  0.00     0.018 A 
ATOM      6  C5  ZIN AC000     -12.274  14.704  70.946  0.00  0.00     0.037 A 
ATOM      7  C4  ZIN AC000     -13.113  14.719  72.054  0.00  0.00     0.068 A 
ATOM      8  C33 ZIN AC000     -13.673  13.535  72.525  0.00  0.00     0.037 A 
ATOM      9  C32 ZIN AC000     -13.408  12.350  71.889  0.00  0.00     0.018 A 
BRANCH   7  10
ATOM     10  O3  ZIN AC000     -13.382  15.890  72.683  0.00  0.00    -0.352 OA
BRANCH  10  11
ATOM     11  C2  ZIN AC000     -12.345  16.442  73.496  0.00  0.00     0.171 C 
ATOM     12  C1  ZIN AC000     -12.440  15.862  74.909  0.00  0.00     0.034 C 
ENDBRANCH  10  11
ENDBRANCH   7  10
ENDBRANCH   2   4
ENDBRANCH   1   2
BRANCH   1  13
ATOM     13  C11 ZIN AC000     -10.466   9.399  69.899  0.00  0.00     0.109 C 
ATOM     14  S12 ZIN AC000      -9.024   9.142  70.539  0.00  0.00    -0.062 SA
ATOM     15  N13 ZIN AC000     -11.300   8.364  69.678  0.00  0.00    -0.348 N 
ATOM     16  H42 ZIN AC000     -12.139   8.508  69.213  0.00  0.00     0.166 HD
BRANCH  15  17
ATOM     17  C14 ZIN AC000     -10.957   7.083  70.121  0.00  0.00     0.036 A 
ATOM     18  C21 ZIN AC000     -10.414   6.163  69.235  0.00  0.00     0.053 A 
ATOM     19  C19 ZIN AC000     -10.071   4.898  69.678  0.00  0.00     0.037 A 
ATOM     20  C18 ZIN AC000     -10.281   4.546  70.999  0.00  0.00     0.048 A 
ATOM     21 Cl20 ZIN AC000      -9.386   3.749  68.572  0.00  0.00    -0.084 Cl
ATOM     22  C16 ZIN AC000     -10.828   5.459  71.883  0.00  0.00     0.037 A 
ATOM     23  C15 ZIN AC000     -11.166   6.727  71.448  0.00  0.00     0.053 A 
ATOM     24 Cl17 ZIN AC000     -11.088   5.013  73.540  0.00  0.00    -0.084 Cl
ENDBRANCH  15  17
ENDBRANCH   1  13
BRANCH   1  25
ATOM     25  N22 ZIN AC000     -10.912  10.949  68.085  0.00  0.00    -0.347 N 
ATOM     26  C31 ZIN AC000     -11.608  11.931  67.549  0.00  0.00     0.099 A 
ATOM     27  C30 ZIN AC000     -11.649  12.109  66.174  0.00  0.00    -0.036 A 
ATOM     28  C25 ZIN AC000     -10.951  11.236  65.366  0.00  0.00    -0.049 A 
ATOM     29  C29 ZIN AC000     -12.460  13.250  65.621  0.00  0.00     0.040 C 
ATOM     30  C24 ZIN AC000     -10.235  10.207  65.966  0.00  0.00     0.025 A 
ATOM     31  C26 ZIN AC000     -10.927  11.355  63.868  0.00  0.00     0.039 C 
ATOM     32  C23 ZIN AC000     -10.238  10.093  67.343  0.00  0.00     0.092 A 
ATOM     33  C27 ZIN AC000     -12.074  12.241  63.384  0.00  0.00     0.005 C 
ATOM     34  C28 ZIN AC000     -12.048  13.550  64.181  0.00  0.00     0.005 C 
ENDBRANCH   1  25
TORSDOF 7
ENDMDL
