MODEL 1
REMARK VINA RESULT:     -9.72      0.000      0.000
REMARK  5 active torsions:
REMARK  status: ('A' for Active; 'I' for Inactive)
REMARK    1  A    between atoms: C2_2  and  C3_3 
REMARK    2  A    between atoms: C2_2  and  C10_10 
REMARK    3  A    between atoms: C10_10  and  C11_11 
REMARK    4  A    between atoms: C10_10  and  N21_21 
REMARK    5  A    between atoms: N13_13  and  C14_14 
ROOT
ATOM      1  C10 ZIN AC000     -11.250  16.129  68.551  0.00  0.00     0.224 C 
ENDROOT
BRANCH   1   2
ATOM      2  C2  ZIN AC000     -10.916  15.690  69.954  0.00  0.00     0.189 C 
ATOM      3  O1  ZIN AC000      -9.783  15.357  70.231  0.00  0.00    -0.290 OA
BRANCH   2   4
ATOM      4  C3  ZIN AC000     -11.963  15.668  70.987  0.00  0.00     0.014 A 
ATOM      5  C9  ZIN AC000     -13.283  15.355  70.645  0.00  0.00     0.039 A 
ATOM      6  C7  ZIN AC000     -14.257  15.330  71.622  0.00  0.00     0.035 A 
ATOM      7  C6  ZIN AC000     -13.933  15.627  72.936  0.00  0.00     0.024 A 
ATOM      8 Cl8  ZIN AC000     -15.894  14.935  71.202  0.00  0.00    -0.084 Cl
ATOM      9  C5  ZIN AC000     -12.630  15.943  73.280  0.00  0.00     0.003 A 
ATOM     10  C4  ZIN AC000     -11.644  15.965  72.317  0.00  0.00     0.015 A 
ENDBRANCH   2   4
ENDBRANCH   1   2
BRANCH   1  11
ATOM     11  C11 ZIN AC000     -10.183  17.069  68.052  0.00  0.00     0.109 C 
ATOM     12  S12 ZIN AC000     -10.584  18.525  67.525  0.00  0.00    -0.062 SA
ATOM     13  N13 ZIN AC000      -8.891  16.684  68.050  0.00  0.00    -0.348 N 
ATOM     14  H36 ZIN AC000      -8.641  15.826  68.427  0.00  0.00     0.166 HD
BRANCH  13  15
ATOM     15  C14 ZIN AC000      -7.913  17.521  67.506  0.00  0.00     0.034 A 
ATOM     16  C20 ZIN AC000      -7.337  18.516  68.285  0.00  0.00     0.048 A 
ATOM     17  C18 ZIN AC000      -6.365  19.338  67.746  0.00  0.00     0.013 A 
ATOM     18  C17 ZIN AC000      -5.977  19.179  66.427  0.00  0.00     0.019 A 
ATOM     19 Br19 ZIN AC000      -5.573  20.687  68.808  0.00  0.00    -0.051 Br
ATOM     20  C16 ZIN AC000      -6.553  18.193  65.648  0.00  0.00     0.004 A 
ATOM     21  C15 ZIN AC000      -7.519  17.364  66.183  0.00  0.00     0.029 A 
ENDBRANCH  13  15
ENDBRANCH   1  11
BRANCH   1  22
ATOM     22  N21 ZIN AC000     -11.317  14.957  67.675  0.00  0.00    -0.347 N 
ATOM     23  C30 ZIN AC000     -11.756  15.103  66.442  0.00  0.00     0.099 A 
ATOM     24  C29 ZIN AC000     -11.830  14.020  65.577  0.00  0.00    -0.036 A 
ATOM     25  C24 ZIN AC000     -11.442  12.778  66.030  0.00  0.00    -0.049 A 
ATOM     26  C28 ZIN AC000     -12.339  14.249  64.180  0.00  0.00     0.040 C 
ATOM     27  C23 ZIN AC000     -10.993  12.659  67.340  0.00  0.00     0.025 A 
ATOM     28  C25 ZIN AC000     -11.478  11.548  65.165  0.00  0.00     0.039 C 
ATOM     29  C22 ZIN AC000     -10.943  13.782  68.142  0.00  0.00     0.092 A 
ATOM     30  C26 ZIN AC000     -12.373  11.777  63.948  0.00  0.00     0.005 C 
ATOM     31  C27 ZIN AC000     -11.949  13.085  63.271  0.00  0.00     0.005 C 
ENDBRANCH   1  22
TORSDOF 5
ENDMDL
