REMARK  9 active torsions:
REMARK  status: ('A' for Active; 'I' for Inactive)
REMARK    1  A    between atoms: C2_2  and  C3_3 
REMARK    2  A    between atoms: C3_3  and  N4_4 
REMARK    3  A    between atoms: C5_5  and  C6_6 
REMARK    4  A    between atoms: C6_6  and  C7_7 
REMARK    5  A    between atoms: C7_7  and  N8_8 
REMARK    6  A    between atoms: C17_19  and  S18_20 
REMARK    7  A    between atoms: S18_20  and  C19_21 
REMARK    8  A    between atoms: C19_21  and  C20_22 
REMARK    9  A    between atoms: C29_32  and  C30_33 
ROOT
ATOM      1  S18 ZIN AC000       0.257  -3.865  -0.232  0.00  0.00    -0.085 SA
ENDROOT
BRANCH   1   2
ATOM      2  C17 ZIN AC000       0.954  -2.977   1.121  0.00  0.00     0.163 A 
ATOM      3  N4  ZIN AC000       1.367  -1.676   1.111  0.00  0.00    -0.311 N 
ATOM      4  C5  ZIN AC000       1.833  -1.425   2.373  0.00  0.00     0.102 A 
ATOM      5  N15 ZIN AC000       1.697  -2.523   3.061  0.00  0.00    -0.287 N 
ATOM      6  N16 ZIN AC000       1.181  -3.444   2.327  0.00  0.00    -0.278 N 
ATOM      7  H15 ZIN AC000       1.961  -2.636   4.040  1.00  0.00     0.188 HD
ATOM      8  H16 ZIN AC000       0.979  -4.395   2.635  1.00  0.00     0.189 HD
BRANCH   3   9
ATOM      9  C3  ZIN AC000       1.317  -0.740  -0.015  0.00  0.00     0.159 C 
BRANCH   9  10
ATOM     10  C2  ZIN AC000       0.002  -0.004   0.002  0.00  0.00    -0.017 C 
ATOM     11  C1  ZIN AC000      -0.016   1.306   0.009  0.00  0.00     0.008 C 
ENDBRANCH   9  10
ENDBRANCH   3   9
BRANCH   4  12
ATOM     12  C6  ZIN AC000       2.397  -0.121   2.874  0.00  0.00     0.106 C 
BRANCH  12  13
ATOM     13  C7  ZIN AC000       1.268   0.736   3.449  0.00  0.00     0.242 C 
BRANCH  13  14
ATOM     14  N8  ZIN AC000       1.818   2.008   3.937  0.00  0.00    -0.071 N 
ATOM     15  H9  ZIN AC000       2.558   1.821   4.598  0.00  0.00     0.279 HD
ATOM     16  C14 ZIN AC000       2.356   2.773   2.806  0.00  0.00     0.235 C 
ATOM     17  C13 ZIN AC000       3.004   4.061   3.320  0.00  0.00     0.028 C 
ATOM     18  C12 ZIN AC000       1.950   4.899   4.049  0.00  0.00     0.003 C 
ATOM     19  C11 ZIN AC000       1.342   4.065   5.180  0.00  0.00     0.028 C 
ATOM     20  C10 ZIN AC000       0.757   2.777   4.598  0.00  0.00     0.235 C 
ENDBRANCH  13  14
ENDBRANCH  12  13
ENDBRANCH   4  12
ENDBRANCH   1   2
BRANCH   1  21
ATOM     21  C19 ZIN AC000      -0.004  -5.476   0.550  0.00  0.00     0.159 C 
BRANCH  21  22
ATOM     22  C20 ZIN AC000      -0.612  -6.427  -0.449  0.00  0.00     0.094 A 
ATOM     23  N26 ZIN AC000      -0.884  -7.682  -0.060  0.00  0.00    -0.339 N 
ATOM     24  C25 ZIN AC000      -1.444  -8.591  -0.932  0.00  0.00     0.092 A 
ATOM     25  H57 ZIN AC000      -0.689  -7.952   0.851  0.00  0.00     0.168 HD
ATOM     26  C24 ZIN AC000      -1.715  -8.192  -2.229  0.00  0.00     0.078 A 
ATOM     27  S27 ZIN AC000      -1.907 -10.272  -0.710  0.00  0.00    -0.082 SA
ATOM     28  C22 ZIN AC000      -1.386  -6.801  -2.591  0.00  0.00     0.260 A 
ATOM     29  C29 ZIN AC000      -2.298  -9.263  -3.026  0.00  0.00     0.006 A 
ATOM     30  N21 ZIN AC000      -0.847  -5.999  -1.658  0.00  0.00    -0.311 N 
ATOM     31  O23 ZIN AC000      -1.600  -6.385  -3.719  0.00  0.00    -0.267 OA
ATOM     32  H21 ZIN AC000      -0.617  -5.035  -1.900  1.00  0.00     0.170 HD
ATOM     33  C28 ZIN AC000      -2.459 -10.413  -2.368  0.00  0.00     0.065 A 
BRANCH  29  34
ATOM     34  C30 ZIN AC000      -2.678  -9.091  -4.444  0.00  0.00     0.017 A 
ATOM     35  S35 ZIN AC000      -3.660  -7.778  -5.080  0.00  0.00    -0.095 SA
ATOM     36  C33 ZIN AC000      -3.536  -8.431  -6.708  0.00  0.00    -0.021 A 
ATOM     37  C32 ZIN AC000      -2.806  -9.548  -6.692  0.00  0.00     0.015 A 
ATOM     38  C34 ZIN AC000      -4.164  -7.823  -7.936  0.00  0.00     0.056 C 
ATOM     39  C31 ZIN AC000      -2.330  -9.918  -5.450  0.00  0.00     0.021 A 
ENDBRANCH  29  34
ENDBRANCH  21  22
ENDBRANCH   1  21
TORSDOF 9
