REMARK  11 active torsions:
REMARK  status: ('A' for Active; 'I' for Inactive)
REMARK    1  A    between atoms: C2_2  and  C3_3 
REMARK    2  A    between atoms: C3_3  and  N4_4 
REMARK    3  A    between atoms: C5_5  and  C6_6 
REMARK    4  A    between atoms: C6_6  and  C7_7 
REMARK    5  A    between atoms: C7_7  and  N8_8 
REMARK    6  A    between atoms: C17_19  and  S18_20 
REMARK    7  A    between atoms: S18_20  and  C19_21 
REMARK    8  A    between atoms: C19_21  and  C21_22 
REMARK    9  A    between atoms: C19_21  and  C33_34 
REMARK       I    between atoms: C21_22  and  N23_24 
REMARK   10  A    between atoms: N23_24  and  C24_25 
REMARK   11  A    between atoms: C30_31  and  O31_32 
ROOT
ATOM      1  S18 ZIN AC000      -0.131  -3.864   0.196  0.00  0.00    -0.073 SA
ENDROOT
BRANCH   1   2
ATOM      2  C17 ZIN AC000      -0.840  -2.972  -1.147  0.00  0.00     0.164 A 
ATOM      3  N4  ZIN AC000      -1.282  -1.680  -1.122  0.00  0.00    -0.311 N 
ATOM      4  C5  ZIN AC000      -1.746  -1.422  -2.382  0.00  0.00     0.102 A 
ATOM      5  N15 ZIN AC000      -1.583  -2.507  -3.085  0.00  0.00    -0.287 N 
ATOM      6  N16 ZIN AC000      -1.052  -3.426  -2.361  0.00  0.00    -0.278 N 
ATOM      7  H15 ZIN AC000      -1.840  -2.611  -4.067  1.00  0.00     0.188 HD
ATOM      8  H16 ZIN AC000      -0.827  -4.368  -2.681  1.00  0.00     0.189 HD
BRANCH   3   9
ATOM      9  C3  ZIN AC000      -1.258  -0.760   0.018  0.00  0.00     0.159 C 
BRANCH   9  10
ATOM     10  C2  ZIN AC000       0.041   0.004   0.019  0.00  0.00    -0.017 C 
ATOM     11  C1  ZIN AC000       0.031   1.314   0.030  0.00  0.00     0.008 C 
ENDBRANCH   9  10
ENDBRANCH   3   9
BRANCH   4  12
ATOM     12  C6  ZIN AC000      -2.336  -0.123  -2.868  0.00  0.00     0.106 C 
BRANCH  12  13
ATOM     13  C7  ZIN AC000      -1.223   0.767  -3.423  0.00  0.00     0.242 C 
BRANCH  13  14
ATOM     14  N8  ZIN AC000      -1.798   2.033  -3.897  0.00  0.00    -0.071 N 
ATOM     15  H9  ZIN AC000      -2.530   1.839  -4.564  0.00  0.00     0.279 HD
ATOM     16  C14 ZIN AC000      -2.358   2.770  -2.758  0.00  0.00     0.235 C 
ATOM     17  C13 ZIN AC000      -3.032   4.051  -3.256  0.00  0.00     0.028 C 
ATOM     18  C12 ZIN AC000      -1.993   4.922  -3.968  0.00  0.00     0.003 C 
ATOM     19  C11 ZIN AC000      -1.361   4.118  -5.107  0.00  0.00     0.028 C 
ATOM     20  C10 ZIN AC000      -0.751   2.834  -4.541  0.00  0.00     0.235 C 
ENDBRANCH  13  14
ENDBRANCH  12  13
ENDBRANCH   4  12
ENDBRANCH   1   2
BRANCH   1  21
ATOM     21  C19 ZIN AC000       0.170  -5.457  -0.608  0.00  0.00     0.180 C 
BRANCH  21  22
ATOM     22  C21 ZIN AC000       0.903  -6.369   0.342  0.00  0.00     0.241 C 
ATOM     23  O22 ZIN AC000       0.807  -6.201   1.540  0.00  0.00    -0.272 OA
ATOM     24  N23 ZIN AC000       1.666  -7.370  -0.139  0.00  0.00    -0.323 N 
ATOM     25  H58 ZIN AC000       1.680  -7.555  -1.091  0.00  0.00     0.169 HD
BRANCH  24  26
ATOM     26  C24 ZIN AC000       2.439  -8.145   0.736  0.00  0.00     0.069 A 
ATOM     27  C30 ZIN AC000       2.800  -9.444   0.386  0.00  0.00     0.095 A 
ATOM     28  C29 ZIN AC000       3.569 -10.203   1.253  0.00  0.00     0.039 A 
ATOM     29  C28 ZIN AC000       3.967  -9.675   2.468  0.00  0.00     0.009 A 
ATOM     30  C26 ZIN AC000       3.605  -8.388   2.818  0.00  0.00    -0.060 A 
ATOM     31  C25 ZIN AC000       2.842  -7.622   1.956  0.00  0.00     0.039 A 
ATOM     32  C27 ZIN AC000       4.042  -7.818   4.143  0.00  0.00     0.048 C 
BRANCH  27  33
ATOM     33  O31 ZIN AC000       2.407  -9.962  -0.808  0.00  0.00    -0.354 OA
ATOM     34  C32 ZIN AC000       2.824 -11.296  -1.105  0.00  0.00     0.210 C 
ENDBRANCH  27  33
ENDBRANCH  24  26
ENDBRANCH  21  22
BRANCH  21  35
ATOM     35  C33 ZIN AC000      -1.147  -6.083  -0.989  0.00  0.00    -0.035 A 
ATOM     36  C38 ZIN AC000      -1.419  -6.369  -2.314  0.00  0.00     0.009 A 
ATOM     37  C37 ZIN AC000      -2.625  -6.947  -2.663  0.00  0.00     0.001 A 
ATOM     38  C36 ZIN AC000      -3.563  -7.232  -1.688  0.00  0.00     0.000 A 
ATOM     39  C35 ZIN AC000      -3.293  -6.942  -0.364  0.00  0.00     0.001 A 
ATOM     40  C34 ZIN AC000      -2.086  -6.367  -0.014  0.00  0.00     0.009 A 
ENDBRANCH  21  35
ENDBRANCH   1  21
TORSDOF 11
