MODEL 1
REMARK VINA RESULT:     -9.25      0.000      0.000
REMARK  11 active torsions:
REMARK  status: ('A' for Active; 'I' for Inactive)
REMARK    1  A    between atoms: C2_2  and  C3_3 
REMARK    2  A    between atoms: C3_3  and  N4_4 
REMARK    3  A    between atoms: C5_5  and  C6_6 
REMARK    4  A    between atoms: C6_6  and  C7_7 
REMARK    5  A    between atoms: C7_7  and  N8_8 
REMARK    6  A    between atoms: C17_19  and  S18_20 
REMARK    7  A    between atoms: S18_20  and  C19_21 
REMARK    8  A    between atoms: C19_21  and  C21_22 
REMARK    9  A    between atoms: C19_21  and  C33_34 
REMARK       I    between atoms: C21_22  and  N23_24 
REMARK   10  A    between atoms: N23_24  and  C24_25 
REMARK   11  A    between atoms: C30_31  and  O31_32 
ROOT
ATOM      1  S18 ZIN AC000     -10.049  10.301  65.941  0.00  0.00    -0.073 SA
ENDROOT
BRANCH   1   2
ATOM      2  C17 ZIN AC000      -9.760  12.033  66.079  0.00  0.00     0.164 A 
ATOM      3  N4  ZIN AC000     -10.694  13.024  65.978  0.00  0.00    -0.311 N 
ATOM      4  C5  ZIN AC000     -10.011  14.196  66.151  0.00  0.00     0.102 A 
ATOM      5  N15 ZIN AC000      -8.758  13.891  66.335  0.00  0.00    -0.287 N 
ATOM      6  N16 ZIN AC000      -8.603  12.617  66.290  0.00  0.00    -0.278 N 
ATOM      7  H15 ZIN AC000      -8.009  14.567  66.492  1.00  0.00     0.188 HD
ATOM      8  H16 ZIN AC000      -7.713  12.130  66.403  1.00  0.00     0.189 HD
BRANCH   3   9
ATOM      9  C3  ZIN AC000     -12.131  12.863  65.740  0.00  0.00     0.159 C 
BRANCH   9  10
ATOM     10  C2  ZIN AC000     -12.425  13.087  64.279  0.00  0.00    -0.017 C 
ATOM     11  C1  ZIN AC000     -12.219  12.126  63.414  0.00  0.00     0.008 C 
ENDBRANCH   9  10
ENDBRANCH   3   9
BRANCH   4  12
ATOM     12  C6  ZIN AC000     -10.600  15.584  66.133  0.00  0.00     0.106 C 
BRANCH  12  13
ATOM     13  C7  ZIN AC000     -10.648  16.136  67.559  0.00  0.00     0.242 C 
BRANCH  13  14
ATOM     14  N8  ZIN AC000     -10.773  17.599  67.514  0.00  0.00    -0.071 N 
ATOM     15  H9  ZIN AC000     -11.735  17.858  67.671  0.00  0.00     0.279 HD
ATOM     16  C14 ZIN AC000      -9.931  18.192  68.559  0.00  0.00     0.235 C 
ATOM     17  C13 ZIN AC000     -10.120  19.711  68.572  0.00  0.00     0.028 C 
ATOM     18  C12 ZIN AC000      -9.718  20.279  67.208  0.00  0.00     0.003 C 
ATOM     19  C11 ZIN AC000     -10.549  19.599  66.117  0.00  0.00     0.028 C 
ATOM     20  C10 ZIN AC000     -10.346  18.085  66.197  0.00  0.00     0.235 C 
ENDBRANCH  13  14
ENDBRANCH  12  13
ENDBRANCH   4  12
ENDBRANCH   1   2
BRANCH   1  21
ATOM     21  C19 ZIN AC000      -9.535   9.763  67.591  0.00  0.00     0.180 C 
BRANCH  21  22
ATOM     22  C21 ZIN AC000     -10.129  10.682  68.627  0.00  0.00     0.241 C 
ATOM     23  O22 ZIN AC000      -9.403  11.283  69.393  0.00  0.00    -0.272 OA
ATOM     24  N23 ZIN AC000     -11.465  10.837  68.704  0.00  0.00    -0.323 N 
ATOM     25  H58 ZIN AC000     -12.040  10.421  68.043  0.00  0.00     0.169 HD
BRANCH  24  26
ATOM     26  C24 ZIN AC000     -12.024  11.599  69.739  0.00  0.00     0.069 A 
ATOM     27  C30 ZIN AC000     -12.605  10.968  70.837  0.00  0.00     0.095 A 
ATOM     28  C29 ZIN AC000     -13.151  11.726  71.859  0.00  0.00     0.039 A 
ATOM     29  C28 ZIN AC000     -13.129  13.107  71.783  0.00  0.00     0.009 A 
ATOM     30  C26 ZIN AC000     -12.557  13.734  70.692  0.00  0.00    -0.060 A 
ATOM     31  C25 ZIN AC000     -12.005  12.984  69.670  0.00  0.00     0.039 A 
ATOM     32  C27 ZIN AC000     -12.536  15.239  70.615  0.00  0.00     0.048 C 
BRANCH  27  33
ATOM     33  O31 ZIN AC000     -12.627   9.610  70.909  0.00  0.00    -0.354 OA
ATOM     34  C32 ZIN AC000     -11.854   9.003  71.947  0.00  0.00     0.210 C 
ENDBRANCH  27  33
ENDBRANCH  24  26
ENDBRANCH  21  22
BRANCH  21  35
ATOM     35  C33 ZIN AC000     -10.018   8.356  67.832  0.00  0.00    -0.035 A 
ATOM     36  C38 ZIN AC000     -10.549   7.619  66.790  0.00  0.00     0.009 A 
ATOM     37  C37 ZIN AC000     -10.988   6.327  67.011  0.00  0.00     0.001 A 
ATOM     38  C36 ZIN AC000     -10.904   5.774  68.276  0.00  0.00     0.000 A 
ATOM     39  C35 ZIN AC000     -10.377   6.513  69.318  0.00  0.00     0.001 A 
ATOM     40  C34 ZIN AC000      -9.935   7.804  69.097  0.00  0.00     0.009 A 
ENDBRANCH  21  35
ENDBRANCH   1  21
TORSDOF 11
ENDMDL
