REMARK  11 active torsions:
REMARK  status: ('A' for Active; 'I' for Inactive)
REMARK    1  A    between atoms: C2_2  and  C3_3 
REMARK    2  A    between atoms: C3_3  and  N4_4 
REMARK    3  A    between atoms: C5_5  and  C6_6 
REMARK    4  A    between atoms: C6_6  and  C7_7 
REMARK    5  A    between atoms: C7_7  and  N8_8 
REMARK    6  A    between atoms: C17_19  and  S18_20 
REMARK    7  A    between atoms: S18_20  and  C19_21 
REMARK    8  A    between atoms: C19_21  and  C21_22 
REMARK    9  A    between atoms: C19_21  and  C33_34 
REMARK       I    between atoms: C21_22  and  N23_24 
REMARK   10  A    between atoms: N23_24  and  C24_25 
REMARK   11  A    between atoms: C30_31  and  O31_32 
ROOT
ATOM      1  S18 ZIN AC000      -0.170  -3.877   0.210  0.00  0.00    -0.073 SA
ENDROOT
BRANCH   1   2
ATOM      2  C17 ZIN AC000      -0.903  -2.994  -1.127  0.00  0.00     0.164 A 
ATOM      3  N4  ZIN AC000      -1.359  -1.707  -1.097  0.00  0.00    -0.311 N 
ATOM      4  C5  ZIN AC000      -1.839  -1.454  -2.352  0.00  0.00     0.102 A 
ATOM      5  N15 ZIN AC000      -1.671  -2.537  -3.057  0.00  0.00    -0.287 N 
ATOM      6  N16 ZIN AC000      -1.122  -3.450  -2.338  0.00  0.00    -0.278 N 
ATOM      7  H15 ZIN AC000      -1.937  -2.645  -4.036  1.00  0.00     0.188 HD
ATOM      8  H16 ZIN AC000      -0.891  -4.390  -2.661  1.00  0.00     0.189 HD
BRANCH   3   9
ATOM      9  C3  ZIN AC000      -1.334  -0.786   0.042  0.00  0.00     0.159 C 
BRANCH   9  10
ATOM     10  C2  ZIN AC000      -0.043  -0.007   0.030  0.00  0.00    -0.017 C 
ATOM     11  C1  ZIN AC000      -0.069   1.303   0.041  0.00  0.00     0.008 C 
ENDBRANCH   9  10
ENDBRANCH   3   9
BRANCH   4  12
ATOM     12  C6  ZIN AC000      -2.449  -0.162  -2.832  0.00  0.00     0.106 C 
BRANCH  12  13
ATOM     13  C7  ZIN AC000      -1.351   0.740  -3.400  0.00  0.00     0.242 C 
BRANCH  13  14
ATOM     14  N8  ZIN AC000      -1.946   1.999  -3.867  0.00  0.00    -0.071 N 
ATOM     15  H9  ZIN AC000      -2.682   1.798  -4.527  0.00  0.00     0.279 HD
ATOM     16  C14 ZIN AC000      -2.502   2.731  -2.723  0.00  0.00     0.235 C 
ATOM     17  C13 ZIN AC000      -3.195   4.003  -3.215  0.00  0.00     0.028 C 
ATOM     18  C12 ZIN AC000      -2.174   4.886  -3.937  0.00  0.00     0.003 C 
ATOM     19  C11 ZIN AC000      -1.544   4.089  -5.083  0.00  0.00     0.028 C 
ATOM     20  C10 ZIN AC000      -0.914   2.812  -4.522  0.00  0.00     0.235 C 
ENDBRANCH  13  14
ENDBRANCH  12  13
ENDBRANCH   4  12
ENDBRANCH   1   2
BRANCH   1  21
ATOM     21  C19 ZIN AC000       0.140  -5.467  -0.597  0.00  0.00     0.180 C 
BRANCH  21  22
ATOM     22  C21 ZIN AC000       0.669  -6.450   0.416  0.00  0.00     0.241 C 
ATOM     23  O22 ZIN AC000       1.161  -6.049   1.450  0.00  0.00    -0.272 OA
ATOM     24  N23 ZIN AC000       0.595  -7.773   0.173  0.00  0.00    -0.323 N 
ATOM     25  H58 ZIN AC000       0.144  -8.096  -0.622  0.00  0.00     0.169 HD
BRANCH  24  26
ATOM     26  C24 ZIN AC000       1.171  -8.683   1.070  0.00  0.00     0.069 A 
ATOM     27  C30 ZIN AC000       1.745  -9.861   0.598  0.00  0.00     0.095 A 
ATOM     28  C29 ZIN AC000       2.317 -10.754   1.489  0.00  0.00     0.039 A 
ATOM     29  C28 ZIN AC000       2.308 -10.481   2.845  0.00  0.00     0.009 A 
ATOM     30  C26 ZIN AC000       1.734  -9.315   3.314  0.00  0.00    -0.060 A 
ATOM     31  C25 ZIN AC000       1.165  -8.415   2.431  0.00  0.00     0.039 A 
ATOM     32  C27 ZIN AC000       1.727  -9.022   4.793  0.00  0.00     0.048 C 
BRANCH  27  33
ATOM     33  O31 ZIN AC000       1.753 -10.129  -0.735  0.00  0.00    -0.354 OA
ATOM     34  C32 ZIN AC000       2.370 -11.350  -1.148  0.00  0.00     0.210 C 
ENDBRANCH  27  33
ENDBRANCH  24  26
ENDBRANCH  21  22
BRANCH  21  35
ATOM     35  C33 ZIN AC000       1.153  -5.284  -1.697  0.00  0.00    -0.035 A 
ATOM     36  C38 ZIN AC000       0.820  -5.591  -3.002  0.00  0.00     0.009 A 
ATOM     37  C37 ZIN AC000       1.749  -5.419  -4.012  0.00  0.00     0.001 A 
ATOM     38  C36 ZIN AC000       3.014  -4.948  -3.714  0.00  0.00     0.000 A 
ATOM     39  C35 ZIN AC000       3.349  -4.646  -2.407  0.00  0.00     0.001 A 
ATOM     40  C34 ZIN AC000       2.419  -4.814  -1.399  0.00  0.00     0.009 A 
ENDBRANCH  21  35
ENDBRANCH   1  21
TORSDOF 11
