MODEL 1
REMARK VINA RESULT:     -9.37      0.000      0.000
REMARK  11 active torsions:
REMARK  status: ('A' for Active; 'I' for Inactive)
REMARK    1  A    between atoms: C2_2  and  C3_3 
REMARK    2  A    between atoms: C3_3  and  N4_4 
REMARK    3  A    between atoms: C5_5  and  C6_6 
REMARK    4  A    between atoms: C6_6  and  C7_7 
REMARK    5  A    between atoms: C7_7  and  N8_8 
REMARK    6  A    between atoms: C17_19  and  S18_20 
REMARK    7  A    between atoms: S18_20  and  C19_21 
REMARK    8  A    between atoms: C19_21  and  C21_22 
REMARK    9  A    between atoms: C19_21  and  C33_34 
REMARK       I    between atoms: C21_22  and  N23_24 
REMARK   10  A    between atoms: N23_24  and  C24_25 
REMARK   11  A    between atoms: C30_31  and  O31_32 
ROOT
ATOM      1  S18 ZIN AC000     -10.213  15.668  65.841  0.00  0.00    -0.073 SA
ENDROOT
BRANCH   1   2
ATOM      2  C17 ZIN AC000      -9.845  13.965  66.103  0.00  0.00     0.164 A 
ATOM      3  N4  ZIN AC000     -10.710  12.917  65.965  0.00  0.00    -0.311 N 
ATOM      4  C5  ZIN AC000      -9.988  11.797  66.270  0.00  0.00     0.102 A 
ATOM      5  N15 ZIN AC000      -8.780  12.184  66.569  0.00  0.00    -0.287 N 
ATOM      6  N16 ZIN AC000      -8.691  13.462  66.475  0.00  0.00    -0.278 N 
ATOM      7  H15 ZIN AC000      -8.016  11.563  66.839  1.00  0.00     0.188 HD
ATOM      8  H16 ZIN AC000      -7.848  14.006  66.663  1.00  0.00     0.189 HD
BRANCH   3   9
ATOM      9  C3  ZIN AC000     -12.119  12.979  65.569  0.00  0.00     0.159 C 
BRANCH   9  10
ATOM     10  C2  ZIN AC000     -12.216  13.006  64.064  0.00  0.00    -0.017 C 
ATOM     11  C1  ZIN AC000     -12.584  11.929  63.413  0.00  0.00     0.008 C 
ENDBRANCH   9  10
ENDBRANCH   3   9
BRANCH   4  12
ATOM     12  C6  ZIN AC000     -10.493  10.377  66.260  0.00  0.00     0.106 C 
BRANCH  12  13
ATOM     13  C7  ZIN AC000      -9.668   9.535  67.235  0.00  0.00     0.242 C 
BRANCH  13  14
ATOM     14  N8  ZIN AC000     -10.475   8.403  67.708  0.00  0.00    -0.071 N 
ATOM     15  H9  ZIN AC000     -11.454   8.620  67.599  0.00  0.00     0.279 HD
ATOM     16  C14 ZIN AC000     -10.149   7.208  66.920  0.00  0.00     0.235 C 
ATOM     17  C13 ZIN AC000     -11.046   6.047  67.354  0.00  0.00     0.028 C 
ATOM     18  C12 ZIN AC000     -10.813   5.757  68.839  0.00  0.00     0.003 C 
ATOM     19  C11 ZIN AC000     -11.082   7.030  69.646  0.00  0.00     0.028 C 
ATOM     20  C10 ZIN AC000     -10.185   8.156  69.126  0.00  0.00     0.235 C 
ENDBRANCH  13  14
ENDBRANCH  12  13
ENDBRANCH   4  12
ENDBRANCH   1   2
BRANCH   1  21
ATOM     21  C19 ZIN AC000      -9.840  16.325  67.486  0.00  0.00     0.180 C 
BRANCH  21  22
ATOM     22  C21 ZIN AC000     -10.848  15.803  68.476  0.00  0.00     0.241 C 
ATOM     23  O22 ZIN AC000     -12.033  15.993  68.293  0.00  0.00    -0.272 OA
ATOM     24  N23 ZIN AC000     -10.435  15.124  69.564  0.00  0.00    -0.323 N 
ATOM     25  H58 ZIN AC000      -9.495  14.915  69.677  0.00  0.00     0.169 HD
BRANCH  24  26
ATOM     26  C24 ZIN AC000     -11.364  14.720  70.533  0.00  0.00     0.069 A 
ATOM     27  C30 ZIN AC000     -12.059  13.524  70.378  0.00  0.00     0.095 A 
ATOM     28  C29 ZIN AC000     -12.972  13.128  71.341  0.00  0.00     0.039 A 
ATOM     29  C28 ZIN AC000     -13.200  13.925  72.448  0.00  0.00     0.009 A 
ATOM     30  C26 ZIN AC000     -12.514  15.114  72.600  0.00  0.00    -0.060 A 
ATOM     31  C25 ZIN AC000     -11.597  15.515  71.645  0.00  0.00     0.039 A 
ATOM     32  C27 ZIN AC000     -12.767  15.979  73.809  0.00  0.00     0.048 C 
BRANCH  27  33
ATOM     33  O31 ZIN AC000     -11.835  12.741  69.289  0.00  0.00    -0.354 OA
ATOM     34  C32 ZIN AC000     -12.073  11.339  69.436  0.00  0.00     0.210 C 
ENDBRANCH  27  33
ENDBRANCH  24  26
ENDBRANCH  21  22
BRANCH  21  35
ATOM     35  C33 ZIN AC000      -9.901  17.830  67.452  0.00  0.00    -0.035 A 
ATOM     36  C38 ZIN AC000      -9.758  18.555  68.619  0.00  0.00     0.009 A 
ATOM     37  C37 ZIN AC000      -9.811  19.937  68.587  0.00  0.00     0.001 A 
ATOM     38  C36 ZIN AC000     -10.015  20.592  67.387  0.00  0.00     0.000 A 
ATOM     39  C35 ZIN AC000     -10.164  19.867  66.219  0.00  0.00     0.001 A 
ATOM     40  C34 ZIN AC000     -10.108  18.486  66.252  0.00  0.00     0.009 A 
ENDBRANCH  21  35
ENDBRANCH   1  21
TORSDOF 11
ENDMDL
