REMARK  9 active torsions:
REMARK  status: ('A' for Active; 'I' for Inactive)
REMARK    1  A    between atoms: C2_2  and  C5_5 
REMARK    2  A    between atoms: N8_8  and  C9_9 
REMARK    3  A    between atoms: C9_9  and  C10_10 
REMARK    4  A    between atoms: C9_9  and  C21_21 
REMARK    5  A    between atoms: C10_10  and  C12_12 
REMARK    6  A    between atoms: C15_15  and  N16_16 
REMARK    7  A    between atoms: N23_23  and  C24_24 
REMARK    8  A    between atoms: C27_27  and  O28_28 
REMARK    9  A    between atoms: O28_28  and  C29_29 
ROOT
ATOM      1  C9  ZIN AC000       2.595  -1.789  -4.411  0.00  0.00     0.224 C 
ENDROOT
BRANCH   1   2
ATOM      2  N8  ZIN AC000       1.787  -1.573  -3.208  0.00  0.00    -0.348 N 
ATOM      3  C7  ZIN AC000       0.552  -2.034  -3.173  0.00  0.00     0.092 A 
ATOM      4  C6  ZIN AC000      -0.240  -1.849  -2.056  0.00  0.00     0.025 A 
ATOM      5  C5  ZIN AC000       0.280  -1.169  -0.965  0.00  0.00    -0.048 A 
ATOM      6  C35 ZIN AC000       1.580  -0.694  -1.041  0.00  0.00     0.025 A 
ATOM      7  C34 ZIN AC000       2.314  -0.922  -2.190  0.00  0.00     0.092 A 
BRANCH   5   8
ATOM      8  C2  ZIN AC000      -0.551  -0.946   0.273  0.00  0.00    -0.024 C 
ATOM      9  C1  ZIN AC000      -0.703   0.556   0.522  0.00  0.00     0.019 C 
ATOM     10  C3  ZIN AC000       0.139  -1.595   1.474  0.00  0.00     0.019 C 
ATOM     11  C4  ZIN AC000      -1.933  -1.573   0.078  0.00  0.00     0.019 C 
ENDBRANCH   5   8
ENDBRANCH   1   2
BRANCH   1  12
ATOM     12  C10 ZIN AC000       3.006  -0.459  -4.987  0.00  0.00     0.189 C 
ATOM     13  O11 ZIN AC000       3.066   0.519  -4.271  0.00  0.00    -0.290 OA
BRANCH  12  14
ATOM     14  C12 ZIN AC000       3.334  -0.345  -6.417  0.00  0.00     0.012 A 
ATOM     15  C20 ZIN AC000       3.716   0.888  -6.955  0.00  0.00     0.017 A 
ATOM     16  C19 ZIN AC000       4.027   0.986  -8.294  0.00  0.00     0.037 A 
ATOM     17  C15 ZIN AC000       3.952  -0.131  -9.109  0.00  0.00     0.102 A 
ATOM     18  C14 ZIN AC000       3.569  -1.354  -8.585  0.00  0.00     0.037 A 
ATOM     19  C13 ZIN AC000       3.260  -1.468  -7.246  0.00  0.00     0.017 A 
BRANCH  17  20
ATOM     20  N16 ZIN AC000       4.283  -0.017 -10.547  0.00  0.00    -0.116 N 
ATOM     21  O17 ZIN AC000       4.217  -0.997 -11.266  0.00  0.00    -0.532 OA
ATOM     22  O18 ZIN AC000       4.620   1.058 -11.011  0.00  0.00    -0.532 OA
ENDBRANCH  17  20
ENDBRANCH  12  14
ENDBRANCH   1  12
BRANCH   1  23
ATOM     23  C21 ZIN AC000       3.825  -2.583  -4.054  0.00  0.00     0.109 C 
ATOM     24  S22 ZIN AC000       5.239  -1.849  -3.918  0.00  0.00    -0.062 SA
ATOM     25  N23 ZIN AC000       3.733  -3.912  -3.849  0.00  0.00    -0.349 N 
ATOM     26  H52 ZIN AC000       2.895  -4.372  -4.013  0.00  0.00     0.166 HD
BRANCH  25  27
ATOM     27  C24 ZIN AC000       4.849  -4.630  -3.401  0.00  0.00     0.033 A 
ATOM     28  C33 ZIN AC000       5.134  -5.878  -3.940  0.00  0.00     0.032 A 
ATOM     29  C32 ZIN AC000       6.238  -6.583  -3.502  0.00  0.00     0.039 A 
ATOM     30  C27 ZIN AC000       7.055  -6.050  -2.515  0.00  0.00     0.075 A 
ATOM     31  C26 ZIN AC000       6.767  -4.806  -1.973  0.00  0.00     0.039 A 
ATOM     32  C25 ZIN AC000       5.667  -4.098  -2.414  0.00  0.00     0.032 A 
BRANCH  30  33
ATOM     33  O28 ZIN AC000       8.138  -6.748  -2.080  0.00  0.00    -0.290 OA
BRANCH  33  34
ATOM     34  C29 ZIN AC000       8.374  -8.022  -2.682  0.00  0.00     0.505 C 
ATOM     35  F30 ZIN AC000       7.274  -8.856  -2.456  0.00  0.00    -0.184 F 
ATOM     36  F31 ZIN AC000       8.560  -7.859  -4.059  0.00  0.00    -0.184 F 
ENDBRANCH  33  34
ENDBRANCH  30  33
ENDBRANCH  25  27
ENDBRANCH   1  23
TORSDOF 9
