@<TRIPOS>MOLECULE
ZINC000068249096
62    66    1     0     0
SMALL
USER_CHARGES
@<TRIPOS>ATOM
1      O1      2.1912    2.6649    2.0581 O.2      1 ZINC000068249096   -0.4400
2      C2      1.3140    2.8641    1.2421 C.2      1 ZINC000068249096    0.4300
3      C3      1.2624    2.0474   -0.0233 C.3      1 ZINC000068249096   -0.0600
4      N4      2.4453    1.1792   -0.0943 N.4      1 ZINC000068249096   -0.2400
5      C5      2.4132    0.2581    1.0442 C.3      1 ZINC000068249096   -0.0300
6      C6      3.6362   -0.6611    1.0093 C.3      1 ZINC000068249096   -0.1300
7      C7      4.4885   -0.3046   -0.2158 C.3      1 ZINC000068249096   -0.1000
8      C8      3.6244   -0.4742   -1.4723 C.3      1 ZINC000068249096   -0.1300
9      C9      2.4018    0.4391   -1.3577 C.3      1 ZINC000068249096   -0.0100
10     C10     4.8994    1.1697   -0.1065 C.3      1 ZINC000068249096    0.1000
11     H11     5.4929    1.3175    0.7958 H        1 ZINC000068249096    0.1300
12     O12     5.6823    1.5442   -1.2706 O.3      1 ZINC000068249096   -0.3500
13     C13     6.6101    2.5049   -1.1000 C.2      1 ZINC000068249096    0.6600
14     O14     6.7615    3.0164   -0.0082 O.2      1 ZINC000068249096   -0.5400
15     N15     7.3710    2.8993   -2.1402 N.am     1 ZINC000068249096   -0.5400
16     C16     8.4535    3.8641   -1.9317 C.3      1 ZINC000068249096    0.1700
17     C17     9.7269    3.1275   -1.6050 C.ar     1 ZINC000068249096   -0.0800
18     C18    10.0376    2.8358   -0.2901 C.ar     1 ZINC000068249096   -0.1100
19     C19    11.2069    2.1591    0.0121 C.ar     1 ZINC000068249096    0.1000
20     F20    11.5101    1.8743    1.2975 F        1 ZINC000068249096   -0.1100
21     C21    12.0660    1.7738   -1.0049 C.ar     1 ZINC000068249096    0.0500
22     F22    13.2074    1.1130   -0.7120 F        1 ZINC000068249096   -0.1100
23     C23    11.7525    2.0668   -2.3227 C.ar     1 ZINC000068249096    0.1000
24     F24    12.5881    1.6919   -3.3158 F        1 ZINC000068249096   -0.1100
25     C25    10.5799    2.7393   -2.6211 C.ar     1 ZINC000068249096   -0.1100
26     C26     7.1269    2.3871   -3.4195 C.ar     1 ZINC000068249096    0.1500
27     C27     6.6888    3.2285   -4.4336 C.ar     1 ZINC000068249096   -0.1300
28     C28     6.4487    2.7214   -5.6960 C.ar     1 ZINC000068249096   -0.0700
29     C29     6.6436    1.3770   -5.9514 C.ar     1 ZINC000068249096   -0.1400
30     C30     7.0802    0.5340   -4.9425 C.ar     1 ZINC000068249096    0.1200
31     F31     7.2694   -0.7796   -5.1948 F        1 ZINC000068249096   -0.1300
32     C32     7.3279    1.0379   -3.6785 C.ar     1 ZINC000068249096   -0.1400
33     C33     3.6425    2.0208   -0.0307 C.3      1 ZINC000068249096   -0.0400
34     C34     0.3388    3.8571    1.4819 C.2      1 ZINC000068249096   -0.3500
35     C35     0.2785    4.6626    2.5907 C.2      1 ZINC000068249096    0.0000
36     C36    -0.7748    5.5414    2.5649 C.2      1 ZINC000068249096   -0.1600
37     C37    -1.5540    5.4647    1.4772 C.2      1 ZINC000068249096   -0.1800
38     S38    -0.9890    4.2650    0.4038 S.3      1 ZINC000068249096    0.2300
39     H39     0.3612    1.4343   -0.0236 H        1 ZINC000068249096    0.1700
40     H40     1.2487    2.7140   -0.8856 H        1 ZINC000068249096    0.1600
41     H41     2.4169    0.8299    1.9722 H        1 ZINC000068249096    0.1500
42     H42     1.5063   -0.3446    0.9964 H        1 ZINC000068249096    0.1300
43     H43     4.2241   -0.5214    1.9165 H        1 ZINC000068249096    0.1100
44     H44     3.3111   -1.6991    0.9386 H        1 ZINC000068249096    0.1100
45     H45     5.3633   -0.9526   -0.2687 H        1 ZINC000068249096    0.1300
46     H46     4.2039   -0.1999   -2.3538 H        1 ZINC000068249096    0.1100
47     H47     3.2992   -1.5113   -1.5547 H        1 ZINC000068249096    0.1100
48     H48     1.4949   -0.1646   -1.3922 H        1 ZINC000068249096    0.1300
49     H49     2.3973    1.1434   -2.1895 H        1 ZINC000068249096    0.1300
50     H50     8.5961    4.4518   -2.8386 H        1 ZINC000068249096    0.1100
51     H51     8.1952    4.5271   -1.1060 H        1 ZINC000068249096    0.1200
52     H52     9.3679    3.1362    0.5021 H        1 ZINC000068249096    0.1600
53     H53    10.3352    2.9679   -3.6479 H        1 ZINC000068249096    0.1600
54     H54     6.5354    4.2790   -4.2353 H        1 ZINC000068249096    0.1400
55     H55     6.1080    3.3762   -6.4843 H        1 ZINC000068249096    0.1400
56     H56     6.4549    0.9831   -6.9391 H        1 ZINC000068249096    0.1400
57     H57     7.6682    0.3811   -2.8916 H        1 ZINC000068249096    0.1400
58     H58     3.6262    2.7172   -0.8692 H        1 ZINC000068249096    0.1300
59     H59     3.6416    2.5823    0.9036 H        1 ZINC000068249096    0.1600
60     H60     0.9887    4.6100    3.4027 H        1 ZINC000068249096    0.1600
61     H61    -0.9626    6.2439    3.3635 H        1 ZINC000068249096    0.1600
62     H62    -2.4216    6.0834    1.3014 H        1 ZINC000068249096    0.1800
@<TRIPOS>BOND
1     1     2     2
2     2     3     1
3     2     34    1
4     3     4     1
5     3     39    1
6     3     40    1
7     4     9     1
8     4     33    1
9     4     5     1
10    5     6     1
11    5     41    1
12    5     42    1
13    6     7     1
14    6     43    1
15    6     44    1
16    7     8     1
17    7     10    1
18    7     45    1
19    8     9     1
20    8     46    1
21    8     47    1
22    9     48    1
23    9     49    1
24    10    11    1
25    10    12    1
26    10    33    1
27    12    13    1
28    13    14    2
29    13    15    am
30    15    16    1
31    15    26    1
32    16    17    1
33    16    50    1
34    16    51    1
35    17    25    ar
36    17    18    ar
37    18    19    ar
38    18    52    1
39    19    20    1
40    19    21    ar
41    21    22    1
42    21    23    ar
43    23    24    1
44    23    25    ar
45    25    53    1
46    26    32    ar
47    26    27    ar
48    27    28    ar
49    27    54    1
50    28    29    ar
51    28    55    1
52    29    30    ar
53    29    56    1
54    30    31    1
55    30    32    ar
56    32    57    1
57    33    58    1
58    33    59    1
59    34    38    1
60    34    35    2
61    35    36    1
62    35    60    1
63    36    37    2
64    36    61    1
65    37    38    1
66    37    62    1
@<TRIPOS>SUBSTRUCTURE
1   ZINC000068249096 1     RESIDUE    1   A     ZIN   1
