REMARK  8 active torsions:
REMARK  status: ('A' for Active; 'I' for Inactive)
REMARK    1  A    between atoms: C2_2  and  C3_3 
REMARK    2  A    between atoms: C2_2  and  C34_33 
REMARK    3  A    between atoms: C3_3  and  N4_4 
REMARK    4  A    between atoms: C10_10  and  O12_11 
REMARK    5  A    between atoms: O12_11  and  C13_12 
REMARK       I    between atoms: C13_12  and  N15_14 
REMARK    6  A    between atoms: N15_14  and  C16_15 
REMARK    7  A    between atoms: N15_14  and  C26_25 
REMARK    8  A    between atoms: C16_15  and  C17_16 
ROOT
ATOM      1  C13 ZIN AC000       6.610   2.505  -1.100  0.00  0.00     0.368 C 
ATOM      2  O14 ZIN AC000       6.761   3.016  -0.008  0.00  0.00    -0.238 OA
ATOM      3  N15 ZIN AC000       7.371   2.899  -2.140  0.00  0.00    -0.289 N 
ENDROOT
BRANCH   1   4
ATOM      4  O12 ZIN AC000       5.682   1.544  -1.271  0.00  0.00    -0.296 OA
BRANCH   4   5
ATOM      5  C10 ZIN AC000       4.899   1.170  -0.106  0.00  0.00     0.164 C 
ATOM      6  C7  ZIN AC000       4.489  -0.305  -0.216  0.00  0.00     0.020 C 
ATOM      7  C6  ZIN AC000       3.636  -0.661   1.009  0.00  0.00     0.035 C 
ATOM      8  C8  ZIN AC000       3.624  -0.474  -1.472  0.00  0.00     0.035 C 
ATOM      9  C5  ZIN AC000       2.413   0.258   1.044  0.00  0.00     0.238 C 
ATOM     10  N4  ZIN AC000       2.445   1.179  -0.094  0.00  0.00    -0.058 N 
ATOM     11  C9  ZIN AC000       2.402   0.439  -1.358  0.00  0.00     0.238 C 
ATOM     12  C33 ZIN AC000       3.643   2.021  -0.031  0.00  0.00     0.270 C 
BRANCH  10  13
ATOM     13  C3  ZIN AC000       1.262   2.047  -0.023  0.00  0.00     0.321 C 
BRANCH  13  14
ATOM     14  C2  ZIN AC000       1.314   2.864   1.242  0.00  0.00     0.192 C 
ATOM     15  O1  ZIN AC000       2.191   2.665   2.058  0.00  0.00    -0.290 OA
BRANCH  14  16
ATOM     16  C34 ZIN AC000       0.339   3.857   1.482  0.00  0.00     0.052 A 
ATOM     17  S38 ZIN AC000      -0.989   4.265   0.404  0.00  0.00    -0.098 SA
ATOM     18  C37 ZIN AC000      -1.554   5.465   1.477  0.00  0.00     0.050 A 
ATOM     19  C36 ZIN AC000      -0.775   5.541   2.565  0.00  0.00     0.009 A 
ATOM     20  C35 ZIN AC000       0.279   4.663   2.591  0.00  0.00     0.023 A 
ENDBRANCH  14  16
ENDBRANCH  13  14
ENDBRANCH  10  13
ENDBRANCH   4   5
ENDBRANCH   1   4
BRANCH   3  21
ATOM     21  C16 ZIN AC000       8.454   3.864  -1.932  0.00  0.00     0.173 C 
BRANCH  21  22
ATOM     22  C17 ZIN AC000       9.727   3.127  -1.605  0.00  0.00    -0.034 A 
ATOM     23  C25 ZIN AC000      10.580   2.739  -2.621  0.00  0.00     0.054 A 
ATOM     24  C23 ZIN AC000      11.752   2.067  -2.323  0.00  0.00     0.158 A 
ATOM     25  C21 ZIN AC000      12.066   1.774  -1.005  0.00  0.00     0.193 A 
ATOM     26  F24 ZIN AC000      12.588   1.692  -3.316  0.00  0.00    -0.203 F 
ATOM     27  C19 ZIN AC000      11.207   2.159   0.012  0.00  0.00     0.158 A 
ATOM     28  F22 ZIN AC000      13.207   1.113  -0.712  0.00  0.00    -0.200 F 
ATOM     29  C18 ZIN AC000      10.038   2.836  -0.290  0.00  0.00     0.054 A 
ATOM     30  F20 ZIN AC000      11.510   1.874   1.298  0.00  0.00    -0.203 F 
ENDBRANCH  21  22
ENDBRANCH   3  21
BRANCH   3  31
ATOM     31  C26 ZIN AC000       7.127   2.387  -3.420  0.00  0.00     0.042 A 
ATOM     32  C32 ZIN AC000       7.328   1.038  -3.679  0.00  0.00     0.072 A 
ATOM     33  C30 ZIN AC000       7.080   0.534  -4.942  0.00  0.00     0.118 A 
ATOM     34  C29 ZIN AC000       6.644   1.377  -5.951  0.00  0.00     0.042 A 
ATOM     35  F31 ZIN AC000       7.269  -0.780  -5.195  0.00  0.00    -0.206 F 
ATOM     36  C28 ZIN AC000       6.449   2.721  -5.696  0.00  0.00     0.005 A 
ATOM     37  C27 ZIN AC000       6.689   3.228  -4.434  0.00  0.00     0.030 A 
ENDBRANCH   3  31
TORSDOF 8
