MODEL 1
REMARK VINA RESULT:     -9.24      0.000      0.000
REMARK  8 active torsions:
REMARK  status: ('A' for Active; 'I' for Inactive)
REMARK    1  A    between atoms: C2_2  and  C3_3 
REMARK    2  A    between atoms: C2_2  and  C34_33 
REMARK    3  A    between atoms: C3_3  and  N4_4 
REMARK    4  A    between atoms: C10_10  and  O12_11 
REMARK    5  A    between atoms: O12_11  and  C13_12 
REMARK       I    between atoms: C13_12  and  N15_14 
REMARK    6  A    between atoms: N15_14  and  C16_15 
REMARK    7  A    between atoms: N15_14  and  C26_25 
REMARK    8  A    between atoms: C16_15  and  C17_16 
ROOT
ATOM      1  C13 ZIN AC000      -7.256  15.797  67.079  0.00  0.00     0.368 C 
ATOM      2  O14 ZIN AC000      -6.259  15.103  67.068  0.00  0.00    -0.238 OA
ATOM      3  N15 ZIN AC000      -7.145  17.135  67.196  0.00  0.00    -0.289 N 
ENDROOT
BRANCH   1   4
ATOM      4  O12 ZIN AC000      -8.473  15.230  66.974  0.00  0.00    -0.296 OA
BRANCH   4   5
ATOM      5  C10 ZIN AC000      -8.721  14.049  67.783  0.00  0.00     0.164 C 
ATOM      6  C7  ZIN AC000      -8.930  12.835  66.867  0.00  0.00     0.020 C 
ATOM      7  C6  ZIN AC000      -9.223  11.612  67.747  0.00  0.00     0.035 C 
ATOM      8  C8  ZIN AC000     -10.157  13.100  65.985  0.00  0.00     0.035 C 
ATOM      9  C5  ZIN AC000     -10.468  11.897  68.590  0.00  0.00     0.238 C 
ATOM     10  N4  ZIN AC000     -10.980  13.236  68.293  0.00  0.00    -0.058 N 
ATOM     11  C9  ZIN AC000     -11.371  13.338  66.884  0.00  0.00     0.238 C 
ATOM     12  C33 ZIN AC000      -9.972  14.248  68.621  0.00  0.00     0.270 C 
BRANCH  10  13
ATOM     13  C3  ZIN AC000     -12.167  13.475  69.124  0.00  0.00     0.321 C 
BRANCH  13  14
ATOM     14  C2  ZIN AC000     -12.239  14.935  69.489  0.00  0.00     0.192 C 
ATOM     15  O1  ZIN AC000     -12.033  15.783  68.645  0.00  0.00    -0.290 OA
BRANCH  14  16
ATOM     16  C34 ZIN AC000     -12.539  15.318  70.815  0.00  0.00     0.052 A 
ATOM     17  S38 ZIN AC000     -14.078  15.066  71.626  0.00  0.00    -0.098 SA
ATOM     18  C37 ZIN AC000     -13.500  15.798  73.054  0.00  0.00     0.050 A 
ATOM     19  C36 ZIN AC000     -12.231  16.205  72.905  0.00  0.00     0.009 A 
ATOM     20  C35 ZIN AC000     -11.678  15.951  71.675  0.00  0.00     0.023 A 
ENDBRANCH  14  16
ENDBRANCH  13  14
ENDBRANCH  10  13
ENDBRANCH   4   5
ENDBRANCH   1   4
BRANCH   3  21
ATOM     21  C16 ZIN AC000      -5.821  17.763  67.199  0.00  0.00     0.173 C 
BRANCH  21  22
ATOM     22  C17 ZIN AC000      -5.559  18.375  68.551  0.00  0.00    -0.034 A 
ATOM     23  C25 ZIN AC000      -5.359  19.738  68.665  0.00  0.00     0.054 A 
ATOM     24  C23 ZIN AC000      -5.124  20.302  69.906  0.00  0.00     0.158 A 
ATOM     25  C21 ZIN AC000      -5.080  19.499  71.035  0.00  0.00     0.193 A 
ATOM     26  F24 ZIN AC000      -4.932  21.635  70.017  0.00  0.00    -0.203 F 
ATOM     27  C19 ZIN AC000      -5.276  18.132  70.918  0.00  0.00     0.158 A 
ATOM     28  F22 ZIN AC000      -4.845  20.047  72.247  0.00  0.00    -0.200 F 
ATOM     29  C18 ZIN AC000      -5.516  17.572  69.676  0.00  0.00     0.054 A 
ATOM     30  F20 ZIN AC000      -5.233  17.346  72.017  0.00  0.00    -0.203 F 
ENDBRANCH  21  22
ENDBRANCH   3  21
BRANCH   3  31
ATOM     31  C26 ZIN AC000      -8.294  17.926  67.314  0.00  0.00     0.042 A 
ATOM     32  C32 ZIN AC000      -8.713  18.708  66.245  0.00  0.00     0.072 A 
ATOM     33  C30 ZIN AC000      -9.852  19.482  66.363  0.00  0.00     0.118 A 
ATOM     34  C29 ZIN AC000     -10.566  19.488  67.549  0.00  0.00     0.042 A 
ATOM     35  F31 ZIN AC000     -10.265  20.239  65.322  0.00  0.00    -0.206 F 
ATOM     36  C28 ZIN AC000     -10.148  18.715  68.615  0.00  0.00     0.005 A 
ATOM     37  C27 ZIN AC000      -9.014  17.934  68.501  0.00  0.00     0.030 A 
ENDBRANCH   3  31
TORSDOF 8
ENDMDL
