REMARK  Name = ZINC000514391472
REMARK  13 active torsions:
REMARK  status: ('A' for Active; 'I' for Inactive)
REMARK    1  A    between atoms: C2_2  and  C3_3
REMARK    2  A    between atoms: C3_3  and  N4_4
REMARK    3  A    between atoms: C5_5  and  C6_6
REMARK    4  A    between atoms: C6_6  and  C7_7
REMARK    5  A    between atoms: C7_7  and  N8_8
REMARK    6  A    between atoms: C17_17  and  S18_18
REMARK    7  A    between atoms: S18_18  and  C19_19
REMARK    8  A    between atoms: C19_19  and  C21_21
REMARK    9  A    between atoms: C19_19  and  C33_33
REMARK   10  A    between atoms: N23_23  and  C24_24
REMARK   11  A    between atoms: C26_26  and  C27_27
REMARK   12  A    between atoms: C30_30  and  O31_31
REMARK   13  A    between atoms: O31_31  and  C32_32
REMARK                            x       y       z     vdW  Elec       q    Type
REMARK                         _______ _______ _______ _____ _____    ______ ____
ROOT
ATOM      1  C   UNL     1       0.170  -5.457  -0.608  0.00  0.00    +0.070 C 
ENDROOT
BRANCH   1   2
ATOM      2  C   UNL     1      -1.147  -6.083  -0.989  0.00  0.00    -0.100 A 
ATOM      3  C   UNL     1      -2.086  -6.367  -0.014  0.00  0.00    +0.040 A 
ATOM      4  C   UNL     1      -3.293  -6.942  -0.364  0.00  0.00    +0.010 A 
ATOM      5  C   UNL     1      -3.563  -7.232  -1.688  0.00  0.00    +0.020 A 
ATOM      6  C   UNL     1      -2.625  -6.947  -2.663  0.00  0.00    +0.010 A 
ATOM      7  C   UNL     1      -1.419  -6.369  -2.314  0.00  0.00    +0.060 A 
ENDBRANCH   1   2
BRANCH   1   8
ATOM      8  C   UNL     1       0.903  -6.369   0.342  0.00  0.00    +0.540 C 
ATOM      9  N   UNL     1       1.666  -7.370  -0.139  0.00  0.00    -0.650 N 
ATOM     10  H   UNL     1       1.680  -7.555  -1.091  0.00  0.00    +0.420 HD
ATOM     11  O   UNL     1       0.807  -6.201   1.540  0.00  0.00    -0.500 OA
BRANCH   9  12
ATOM     12  C   UNL     1       2.439  -8.145   0.736  0.00  0.00    +0.120 A 
ATOM     13  C   UNL     1       2.842  -7.622   1.956  0.00  0.00    +0.060 A 
ATOM     14  C   UNL     1       3.605  -8.388   2.818  0.00  0.00    -0.100 A 
ATOM     15  C   UNL     1       3.967  -9.675   2.468  0.00  0.00    +0.040 A 
ATOM     16  C   UNL     1       3.569 -10.203   1.253  0.00  0.00    -0.040 A 
ATOM     17  C   UNL     1       4.042  -7.818   4.143  0.00  0.00    +0.100 C 
ATOM     18  C   UNL     1       2.800  -9.444   0.386  0.00  0.00    +0.100 A 
BRANCH  18  19
ATOM     19  O   UNL     1       2.407  -9.962  -0.808  0.00  0.00    -0.320 OA
ATOM     20  C   UNL     1       2.824 -11.296  -1.105  0.00  0.00    +0.250 C 
ENDBRANCH  18  19
ENDBRANCH   9  12
ENDBRANCH   1   8
BRANCH   1  21
ATOM     21  S   UNL     1      -0.131  -3.864   0.196  0.00  0.00    +0.090 S 
BRANCH  21  26
ATOM     22  N   UNL     1      -1.282  -1.680  -1.122  0.00  0.00    -0.450 N 
ATOM     23  C   UNL     1      -1.746  -1.422  -2.382  0.00  0.00    +0.160 A 
ATOM     24  N   UNL     1      -1.583  -2.507  -3.085  0.00  0.00    -0.260 NA
ATOM     25  N   UNL     1      -1.052  -3.426  -2.361  0.00  0.00    -0.270 NA
ATOM     26  C   UNL     1      -0.840  -2.972  -1.148  0.00  0.00    +0.170 A 
BRANCH  22  27
ATOM     27  C   UNL     1      -1.258  -0.760   0.018  0.00  0.00    +0.350 C 
BRANCH  27  29
ATOM     28  C   UNL     1       0.031   1.314   0.030  0.00  0.00    +0.040 C 
ATOM     29  C   UNL     1       0.041   0.004   0.019  0.00  0.00    -0.050 C 
ENDBRANCH  27  29
ENDBRANCH  22  27
BRANCH  23  30
ATOM     30  C   UNL     1      -2.336  -0.124  -2.868  0.00  0.00    +0.170 C 
BRANCH  30  31
ATOM     31  C   UNL     1      -1.223   0.767  -3.423  0.00  0.00    +0.260 C 
BRANCH  31  32
ATOM     32  N   UNL     1      -1.798   2.033  -3.897  0.00  0.00    -0.380 N 
ATOM     33  C   UNL     1      -0.751   2.834  -4.541  0.00  0.00    +0.250 C 
ATOM     34  C   UNL     1      -1.361   4.118  -5.107  0.00  0.00    +0.050 C 
ATOM     35  C   UNL     1      -1.993   4.922  -3.968  0.00  0.00    +0.040 C 
ATOM     36  C   UNL     1      -3.032   4.051  -3.256  0.00  0.00    +0.060 C 
ATOM     37  C   UNL     1      -2.358   2.770  -2.758  0.00  0.00    +0.240 C 
ATOM     38  H   UNL     1      -2.531   1.839  -4.564  0.00  0.00    +0.430 HD
ENDBRANCH  31  32
ENDBRANCH  30  31
ENDBRANCH  23  30
ENDBRANCH  21  26
ENDBRANCH   1  21
TORSDOF 11
