REMARK  Name = ZINC000022733112
REMARK  9 active torsions:
REMARK  status: ('A' for Active; 'I' for Inactive)
REMARK    1  A    between atoms: C1_1  and  C2_2
REMARK    2  A    between atoms: C2_2  and  O3_3
REMARK    3  A    between atoms: O3_3  and  C4_4
REMARK    4  A    between atoms: C7_7  and  C8_8
REMARK    5  A    between atoms: C8_8  and  C10_10
REMARK    6  A    between atoms: C10_10  and  C11_11
REMARK    7  A    between atoms: C10_10  and  N22_22
REMARK    8  A    between atoms: C11_11  and  N13_13
REMARK    9  A    between atoms: N13_13  and  C14_14
REMARK                            x       y       z     vdW  Elec       q    Type
REMARK                         _______ _______ _______ _____ _____    ______ ____
ROOT
ATOM      1  C   UNL     1       1.133  -6.212   2.317  0.00  0.00    +0.250 C 
ENDROOT
BRANCH   1   2
ATOM      2  N   UNL     1       2.495  -6.610   2.681  0.00  0.00    -0.330 N 
ATOM      3  C   UNL     1       2.732  -7.863   3.013  0.00  0.00    +0.310 A 
ATOM      4  C   UNL     1       4.005  -8.269   3.363  0.00  0.00    +0.080 A 
ATOM      5  C   UNL     1       5.040  -7.341   3.362  0.00  0.00    +0.050 A 
ATOM      6  C   UNL     1       6.417  -7.795   3.758  0.00  0.00    +0.110 C 
ATOM      7  C   UNL     1       7.466  -6.784   3.296  0.00  0.00    +0.040 C 
ATOM      8  C   UNL     1       7.037  -5.389   3.765  0.00  0.00    +0.040 C 
ATOM      9  C   UNL     1       5.808  -4.964   2.964  0.00  0.00    +0.120 C 
ATOM     10  C   UNL     1       4.756  -6.040   3.004  0.00  0.00    -0.070 A 
ATOM     11  C   UNL     1       3.454  -5.707   2.662  0.00  0.00    +0.340 A 
ENDBRANCH   1   2
BRANCH   1  12
ATOM     12  C   UNL     1       0.723  -6.922   1.053  0.00  0.00    +0.400 C 
ATOM     13  O   UNL     1       1.176  -8.018   0.798  0.00  0.00    -0.430 OA
BRANCH  12  17
ATOM     14  C   UNL     1      -2.011  -5.089  -1.613  0.00  0.00    +0.200 A 
ATOM     15  C   UNL     1      -1.493  -6.345  -1.907  0.00  0.00    -0.070 A 
ATOM     16  C   UNL     1      -0.608  -6.943  -1.048  0.00  0.00    +0.150 A 
ATOM     17  C   UNL     1      -0.225  -6.286   0.129  0.00  0.00    -0.240 A 
ATOM     18  C   UNL     1      -0.750  -5.021   0.420  0.00  0.00    +0.110 A 
ATOM     19  C   UNL     1      -1.630  -4.429  -0.449  0.00  0.00    -0.010 A 
BRANCH  14  20
ATOM     20  O   UNL     1      -2.886  -4.501  -2.467  0.00  0.00    -0.300 OA
BRANCH  20  22
ATOM     21  C   UNL     1      -4.225  -4.417  -4.477  0.00  0.00    +0.070 C 
ATOM     22  C   UNL     1      -3.235  -5.233  -3.643  0.00  0.00    +0.190 C 
ENDBRANCH  20  22
ENDBRANCH  14  20
ENDBRANCH  12  17
ENDBRANCH   1  12
BRANCH   1  23
ATOM     23  C   UNL     1       0.187  -6.584   3.431  0.00  0.00    +0.200 C 
ATOM     24  S   UNL     1      -0.386  -5.452   4.404  0.00  0.00    -0.260 S 
BRANCH  23  25
ATOM     25  N   UNL     1      -0.175  -7.870   3.606  0.00  0.00    -0.600 N 
ATOM     26  H   UNL     1       0.237  -8.567   3.072  0.00  0.00    +0.410 HD
BRANCH  25  27
ATOM     27  C   UNL     1      -1.146  -8.200   4.557  0.00  0.00    +0.110 A 
ATOM     28  C   UNL     1      -0.976  -7.823   5.883  0.00  0.00    +0.090 A 
ATOM     29  C   UNL     1      -1.938  -8.149   6.821  0.00  0.00    -0.020 A 
ATOM     30  C   UNL     1      -3.068  -8.851   6.440  0.00  0.00    +0.080 A 
ATOM     31  C   UNL     1      -3.239  -9.228   5.120  0.00  0.00    -0.020 A 
ATOM     32 CL   UNL     1      -4.659 -10.107   4.646  0.00  0.00    -0.030 Cl
ATOM     33 CL   UNL     1      -1.727  -7.679   8.479  0.00  0.00    -0.030 Cl
ATOM     34  C   UNL     1      -2.283  -8.899   4.176  0.00  0.00    +0.060 A 
ENDBRANCH  25  27
ENDBRANCH  23  25
ENDBRANCH   1  23
TORSDOF 8
