MODEL 1
REMARK VINA RESULT:      -7.2      0.000      0.000
REMARK  Name = ZINC000022731086
REMARK  9 active torsions:
REMARK  status: ('A' for Active; 'I' for Inactive)
REMARK    1  A    between atoms: C1_1  and  C2_2
REMARK    2  A    between atoms: C2_2  and  O3_3
REMARK    3  A    between atoms: O3_3  and  C4_4
REMARK    4  A    between atoms: C7_7  and  C8_8
REMARK    5  A    between atoms: C8_8  and  C10_10
REMARK    6  A    between atoms: C10_10  and  C11_11
REMARK    7  A    between atoms: C10_10  and  N22_22
REMARK    8  A    between atoms: C11_11  and  N13_13
REMARK    9  A    between atoms: N13_13  and  C14_14
REMARK                            x       y       z     vdW  Elec       q    Type
REMARK                         _______ _______ _______ _____ _____    ______ ____
ROOT
ATOM      1  C   UNL     1      -9.855  13.166  67.603  0.00  0.00    +0.230 C 
ENDROOT
BRANCH   1   2
ATOM      2  N   UNL     1     -10.787  13.135  68.733  0.00  0.00    -0.330 N 
ATOM      3  C   UNL     1     -11.181  11.970  69.209  0.00  0.00    +0.350 A 
ATOM      4  C   UNL     1     -12.060  11.906  70.272  0.00  0.00    +0.070 A 
ATOM      5  C   UNL     1     -12.529  13.086  70.840  0.00  0.00    +0.050 A 
ATOM      6  C   UNL     1     -13.496  13.000  71.988  0.00  0.00    +0.110 C 
ATOM      7  C   UNL     1     -13.560  14.332  72.734  0.00  0.00    +0.040 C 
ATOM      8  C   UNL     1     -13.797  15.451  71.712  0.00  0.00    +0.030 C 
ATOM      9  C   UNL     1     -12.533  15.614  70.869  0.00  0.00    +0.120 C 
ATOM     10  C   UNL     1     -12.091  14.285  70.319  0.00  0.00    -0.070 A 
ATOM     11  C   UNL     1     -11.205  14.270  69.252  0.00  0.00    +0.320 A 
ENDBRANCH   1   2
BRANCH   1  12
ATOM     12  C   UNL     1     -10.631  13.136  66.311  0.00  0.00    +0.430 C 
ATOM     13  O   UNL     1     -11.545  13.913  66.135  0.00  0.00    -0.410 OA
BRANCH  12  17
ATOM     14  C   UNL     1      -9.614  10.339  63.298  0.00  0.00    +0.190 A 
ATOM     15  C   UNL     1      -9.366  10.040  64.633  0.00  0.00    -0.080 A 
ATOM     16  C   UNL     1      -9.694  10.942  65.613  0.00  0.00    +0.150 A 
ATOM     17  C   UNL     1     -10.279  12.167  65.266  0.00  0.00    -0.220 A 
ATOM     18  C   UNL     1     -10.524  12.463  63.921  0.00  0.00    +0.080 A 
ATOM     19  C   UNL     1     -10.189  11.557  62.949  0.00  0.00    -0.010 A 
BRANCH  14  20
ATOM     20  O   UNL     1      -9.287   9.444  62.332  0.00  0.00    -0.300 OA
BRANCH  20  22
ATOM     21  C   UNL     1      -7.114  10.102  61.503  0.00  0.00    +0.070 C 
ATOM     22  C   UNL     1      -8.602   9.949  61.184  0.00  0.00    +0.190 C 
ENDBRANCH  20  22
ENDBRANCH  14  20
ENDBRANCH  12  17
ENDBRANCH   1  12
BRANCH   1  23
ATOM     23  C   UNL     1      -9.032  14.427  67.666  0.00  0.00    +0.200 C 
ATOM     24  S   UNL     1      -8.197  14.772  68.985  0.00  0.00    -0.270 S 
BRANCH  23  25
ATOM     25  N   UNL     1      -8.999  15.265  66.610  0.00  0.00    -0.580 N 
ATOM     26  H   UNL     1      -8.846  14.915  65.719  0.00  0.00    +0.410 HD
BRANCH  25  27
ATOM     27  C   UNL     1      -9.187  16.638  66.801  0.00  0.00    +0.100 A 
ATOM     28  C   UNL     1     -10.452  17.135  67.085  0.00  0.00    +0.120 A 
ATOM     29  C   UNL     1     -10.634  18.491  67.273  0.00  0.00    +0.070 A 
ATOM     30  C   UNL     1      -9.557  19.355  67.178  0.00  0.00    +0.000 A 
ATOM     31  C   UNL     1      -8.294  18.864  66.896  0.00  0.00    +0.060 A 
ATOM     32 CL   UNL     1      -9.791  21.059  67.415  0.00  0.00    -0.030 Cl
ATOM     33  C   UNL     1      -8.105  17.507  66.712  0.00  0.00    -0.020 A 
ATOM     34 CL   UNL     1      -6.521  16.892  66.358  0.00  0.00    -0.050 Cl
ENDBRANCH  25  27
ENDBRANCH  23  25
ENDBRANCH   1  23
TORSDOF 8
ENDMDL
