REMARK  Name = ZINC000022727009
REMARK  10 active torsions:
REMARK  status: ('A' for Active; 'I' for Inactive)
REMARK    1  A    between atoms: C1_1  and  C2_2
REMARK    2  A    between atoms: C5_5  and  C6_6
REMARK    3  A    between atoms: C6_6  and  C8_8
REMARK    4  A    between atoms: C8_8  and  C9_9
REMARK    5  A    between atoms: C8_8  and  N19_19
REMARK    6  A    between atoms: C9_9  and  N11_11
REMARK    7  A    between atoms: N11_11  and  C12_12
REMARK    8  A    between atoms: C22_22  and  C23_23
REMARK    9  A    between atoms: C23_23  and  C24_24
REMARK   10  A    between atoms: C33_33  and  N34_34
REMARK                            x       y       z     vdW  Elec       q    Type
REMARK                         _______ _______ _______ _____ _____    ______ ____
ROOT
ATOM      1  C   UNL     1       0.319  -5.572  -1.173  0.00  0.00    +0.270 C 
ENDROOT
BRANCH   1   2
ATOM      2  N   UNL     1       0.222  -6.664  -0.202  0.00  0.00    -0.340 N 
ATOM      3  C   UNL     1       1.009  -6.654   0.856  0.00  0.00    +0.320 A 
ATOM      4  C   UNL     1       0.945  -7.667   1.794  0.00  0.00    +0.080 A 
ATOM      5  C   UNL     1       0.039  -8.701   1.612  0.00  0.00    +0.060 A 
ATOM      6  C   UNL     1      -0.772  -8.677   0.488  0.00  0.00    +0.070 A 
ATOM      7  C   UNL     1      -0.655  -7.628  -0.405  0.00  0.00    +0.350 A 
BRANCH   5   8
ATOM      8  C   UNL     1      -0.062  -9.824   2.612  0.00  0.00    +0.160 C 
BRANCH   8   9
ATOM      9  C   UNL     1      -1.076  -9.466   3.668  0.00  0.00    -0.110 A 
ATOM     10  C   UNL     1      -0.679  -8.790   4.806  0.00  0.00    +0.010 A 
ATOM     11  C   UNL     1      -1.609  -8.462   5.775  0.00  0.00    +0.020 A 
ATOM     12  C   UNL     1      -2.936  -8.810   5.605  0.00  0.00    +0.020 A 
ATOM     13  C   UNL     1      -3.333  -9.486   4.466  0.00  0.00    +0.020 A 
ATOM     14  C   UNL     1      -2.404  -9.810   3.495  0.00  0.00    +0.020 A 
ENDBRANCH   8   9
ENDBRANCH   5   8
ENDBRANCH   1   2
BRANCH   1  15
ATOM     15  C   UNL     1       0.034  -4.261  -0.486  0.00  0.00    +0.400 C 
ATOM     16  O   UNL     1       0.305  -4.120   0.687  0.00  0.00    -0.410 OA
BRANCH  15  21
ATOM     17  C   UNL     1      -2.337   0.071  -3.429  0.00  0.00    +0.140 C 
ATOM     18  C   UNL     1      -1.715  -1.065  -2.657  0.00  0.00    +0.040 A 
ATOM     19  C   UNL     1      -1.455  -2.267  -3.292  0.00  0.00    +0.050 A 
ATOM     20  C   UNL     1      -0.887  -3.311  -2.593  0.00  0.00    +0.120 A 
ATOM     21  C   UNL     1      -0.573  -3.152  -1.239  0.00  0.00    -0.190 A 
ATOM     22  C   UNL     1      -0.839  -1.934  -0.605  0.00  0.00    +0.180 A 
ATOM     23  C   UNL     1      -1.403  -0.898  -1.319  0.00  0.00    -0.050 A 
BRANCH  23  24
ATOM     24  N   UNL     1      -1.685   0.392  -0.650  0.00  0.00    +0.020 N 
ATOM     25  O   UNL     1      -2.093   0.406   0.497  0.00  0.00    -0.140 OA
ATOM     26  O   UNL     1      -1.508   1.439  -1.247  0.00  0.00    -0.120 OA
ENDBRANCH  23  24
ENDBRANCH  15  21
ENDBRANCH   1  15
BRANCH   1  27
ATOM     27  C   UNL     1       1.708  -5.541  -1.757  0.00  0.00    +0.190 C 
ATOM     28  S   UNL     1       1.942  -5.954  -3.284  0.00  0.00    -0.260 S 
BRANCH  27  29
ATOM     29  N   UNL     1       2.752  -5.167  -0.992  0.00  0.00    -0.590 N 
ATOM     30  H   UNL     1       2.602  -4.850  -0.088  0.00  0.00    +0.410 HD
BRANCH  29  31
ATOM     31  C   UNL     1       4.054  -5.234  -1.503  0.00  0.00    +0.050 A 
ATOM     32  C   UNL     1       4.340  -4.697  -2.751  0.00  0.00    +0.110 A 
ATOM     33  C   UNL     1       5.625  -4.765  -3.252  0.00  0.00    +0.040 A 
ATOM     34  C   UNL     1       6.627  -5.366  -2.514  0.00  0.00    +0.090 A 
ATOM     35  C   UNL     1       6.348  -5.903  -1.270  0.00  0.00    +0.010 A 
ATOM     36  C   UNL     1       5.065  -5.834  -0.759  0.00  0.00    +0.110 A 
ATOM     37  F   UNL     1       4.791  -6.358   0.456  0.00  0.00    -0.140 F 
ENDBRANCH  29  31
ENDBRANCH  27  29
ENDBRANCH   1  27
TORSDOF 9
