@<TRIPOS>MOLECULE
ZINC000514390803
63    67    1     0     0
SMALL
USER_CHARGES
@<TRIPOS>ATOM
1      C1     -0.0157    1.3058    0.0092 C.2      1 ZINC000514390803   -0.1700
2      C2      0.0021   -0.0041    0.0020 C.2      1 ZINC000514390803   -0.1800
3      C3      1.3172   -0.7397   -0.0145 C.3      1 ZINC000514390803    0.1200
4      N4      1.3674   -1.6756    1.1115 N.pl3    1 ZINC000514390803   -0.4500
5      C5      1.8326   -1.4255    2.3730 C.2      1 ZINC000514390803    0.1600
6      C6      2.3971   -0.1213    2.8744 C.3      1 ZINC000514390803   -0.0500
7      C7      1.2676    0.7363    3.4485 C.3      1 ZINC000514390803   -0.0100
8      N8      1.8179    2.0076    3.9372 N.4      1 ZINC000514390803   -0.3800
9      H9      2.5576    1.8210    4.5977 H        1 ZINC000514390803    0.4300
10     C10     0.7566    2.7767    4.5980 C.3      1 ZINC000514390803   -0.0100
11     C11     1.3420    4.0652    5.1799 C.3      1 ZINC000514390803   -0.1500
12     C12     1.9505    4.8993    4.0489 C.3      1 ZINC000514390803   -0.1400
13     C13     3.0041    4.0608    3.3195 C.3      1 ZINC000514390803   -0.1500
14     C14     2.3556    2.7733    2.8063 C.3      1 ZINC000514390803   -0.0200
15     N15     1.6968   -2.5235    3.0613 N.2      1 ZINC000514390803   -0.2600
16     N16     1.1815   -3.4438    2.3268 N.2      1 ZINC000514390803   -0.2900
17     C17     0.9540   -2.9768    1.1210 C.2      1 ZINC000514390803    0.1500
18     S18     0.2568   -3.8646   -0.2320 S.3      1 ZINC000514390803    0.1400
19     C19    -0.0043   -5.4757    0.5504 C.3      1 ZINC000514390803   -0.0900
20     C20    -0.6115   -6.4267   -0.4486 C.2      1 ZINC000514390803    0.4600
21     N21    -0.8469   -5.9989   -1.6576 N.2      1 ZINC000514390803   -0.5700
22     C22    -1.3862   -6.8006   -2.5908 C.2      1 ZINC000514390803    0.5400
23     O23    -1.6000   -6.3850   -3.7186 O.2      1 ZINC000514390803   -0.4600
24     C24    -1.7149   -8.1921   -2.2286 C.2      1 ZINC000514390803   -0.2100
25     C25    -1.4438   -8.5915   -0.9322 C.2      1 ZINC000514390803    0.0500
26     N26    -0.8837   -7.6821   -0.0604 N.pl3    1 ZINC000514390803   -0.5800
27     S27    -1.9067  -10.2718   -0.7101 S.3      1 ZINC000514390803    0.2100
28     C28    -2.4594  -10.4127   -2.3682 C.2      1 ZINC000514390803   -0.2100
29     C29    -2.2978   -9.2630   -3.0264 C.2      1 ZINC000514390803    0.0400
30     C30    -2.6778   -9.0906   -4.4442 C.2      1 ZINC000514390803   -0.1500
31     C31    -2.3298   -9.9185   -5.4496 C.2      1 ZINC000514390803   -0.1100
32     C32    -2.8058   -9.5483   -6.6920 C.2      1 ZINC000514390803   -0.1500
33     C33    -3.5357   -8.4306   -6.7080 C.2      1 ZINC000514390803   -0.1800
34     C34    -4.1638   -7.8231   -7.9359 C.3      1 ZINC000514390803   -0.0900
35     S35    -3.6605   -7.7777   -5.0799 S.3      1 ZINC000514390803    0.1800
36     H36     0.9122    1.8585    0.0033 H        1 ZINC000514390803    0.1000
37     H37    -0.9582    1.8330    0.0166 H        1 ZINC000514390803    0.1100
38     H38    -0.9258   -0.5567    0.0079 H        1 ZINC000514390803    0.1300
39     H39     1.4134   -1.2911   -0.9498 H        1 ZINC000514390803    0.1200
40     H40     2.1349   -0.0241    0.0711 H        1 ZINC000514390803    0.1000
41     H41     3.1342   -0.3197    3.6526 H        1 ZINC000514390803    0.1200
42     H42     2.8732    0.4094    2.0499 H        1 ZINC000514390803    0.1000
43     H43     0.5306    0.9347    2.6703 H        1 ZINC000514390803    0.1300
44     H44     0.7916    0.2055    4.2730 H        1 ZINC000514390803    0.1400
45     H45    -0.0172    3.0253    3.8717 H        1 ZINC000514390803    0.1300
46     H46     0.3223    2.1805    5.4005 H        1 ZINC000514390803    0.1300
47     H47     0.5520    4.6356    5.6685 H        1 ZINC000514390803    0.1100
48     H48     2.1158    3.8177    5.9066 H        1 ZINC000514390803    0.0900
49     H49     1.1674    5.1902    3.3487 H        1 ZINC000514390803    0.0800
50     H50     2.4187    5.7913    4.4652 H        1 ZINC000514390803    0.1000
51     H51     3.4022    4.6282    2.4783 H        1 ZINC000514390803    0.1100
52     H52     3.8124    3.8133    4.0076 H        1 ZINC000514390803    0.0900
53     H53     3.1022    2.1733    2.2860 H        1 ZINC000514390803    0.1300
54     H54     1.5478    3.0231    2.1183 H        1 ZINC000514390803    0.1300
55     H55     0.9511   -5.8716    0.8946 H        1 ZINC000514390803    0.1400
56     H56    -0.6779   -5.3622    1.3999 H        1 ZINC000514390803    0.1400
57     H57    -0.6894   -7.9523    0.8508 H        1 ZINC000514390803    0.4300
58     H58    -2.8752  -11.3111   -2.7999 H        1 ZINC000514390803    0.1900
59     H59    -1.7264  -10.8009   -5.2957 H        1 ZINC000514390803    0.1400
60     H60    -2.6023  -10.1207   -7.5850 H        1 ZINC000514390803    0.1400
61     H61    -5.1661   -8.2300   -8.0704 H        1 ZINC000514390803    0.0800
62     H62    -4.2239   -6.7414   -7.8159 H        1 ZINC000514390803    0.0700
63     H63    -3.5558   -8.0586   -8.8093 H        1 ZINC000514390803    0.0800
@<TRIPOS>BOND
1     1     2     2
2     1     36    1
3     1     37    1
4     2     3     1
5     2     38    1
6     3     4     1
7     3     39    1
8     3     40    1
9     4     17    1
10    4     5     1
11    5     6     1
12    5     15    2
13    6     7     1
14    6     41    1
15    6     42    1
16    7     8     1
17    7     43    1
18    7     44    1
19    8     9     1
20    8     14    1
21    8     10    1
22    10    11    1
23    10    45    1
24    10    46    1
25    11    12    1
26    11    47    1
27    11    48    1
28    12    13    1
29    12    49    1
30    12    50    1
31    13    14    1
32    13    51    1
33    13    52    1
34    14    53    1
35    14    54    1
36    15    16    1
37    16    17    2
38    17    18    1
39    18    19    1
40    19    20    1
41    19    55    1
42    19    56    1
43    20    26    1
44    20    21    2
45    21    22    1
46    22    23    2
47    22    24    1
48    24    29    1
49    24    25    2
50    25    26    1
51    25    27    1
52    26    57    1
53    27    28    1
54    28    29    2
55    28    58    1
56    29    30    1
57    30    35    1
58    30    31    2
59    31    32    1
60    31    59    1
61    32    33    2
62    32    60    1
63    33    34    1
64    33    35    1
65    34    61    1
66    34    62    1
67    34    63    1
@<TRIPOS>SUBSTRUCTURE
1   ZINC000514390803 1     RESIDUE    1   A     ZIN   1
