MODEL 1
REMARK VINA RESULT:      -7.7      0.000      0.000
REMARK  Name = ZINC000514391472
REMARK  13 active torsions:
REMARK  status: ('A' for Active; 'I' for Inactive)
REMARK    1  A    between atoms: C2_2  and  C3_3
REMARK    2  A    between atoms: C3_3  and  N4_4
REMARK    3  A    between atoms: C5_5  and  C6_6
REMARK    4  A    between atoms: C6_6  and  C7_7
REMARK    5  A    between atoms: C7_7  and  N8_8
REMARK    6  A    between atoms: C17_17  and  S18_18
REMARK    7  A    between atoms: S18_18  and  C19_19
REMARK    8  A    between atoms: C19_19  and  C21_21
REMARK    9  A    between atoms: C19_19  and  C33_33
REMARK   10  A    between atoms: N23_23  and  C24_24
REMARK   11  A    between atoms: C26_26  and  C27_27
REMARK   12  A    between atoms: C30_30  and  O31_31
REMARK   13  A    between atoms: O31_31  and  C32_32
REMARK                            x       y       z     vdW  Elec       q    Type
REMARK                         _______ _______ _______ _____ _____    ______ ____
ROOT
ATOM      1  C   UNL     1     -10.647  12.818  67.044  0.00  0.00    +0.070 C 
ENDROOT
BRANCH   1   2
ATOM      2  C   UNL     1     -10.318  12.148  65.735  0.00  0.00    -0.100 A 
ATOM      3  C   UNL     1     -11.051  12.448  64.601  0.00  0.00    +0.040 A 
ATOM      4  C   UNL     1     -10.749  11.832  63.401  0.00  0.00    +0.010 A 
ATOM      5  C   UNL     1      -9.715  10.918  63.333  0.00  0.00    +0.020 A 
ATOM      6  C   UNL     1      -8.981  10.619  64.467  0.00  0.00    +0.010 A 
ATOM      7  C   UNL     1      -9.280  11.237  65.666  0.00  0.00    +0.060 A 
ENDBRANCH   1   2
BRANCH   1   8
ATOM      8  C   UNL     1     -11.260  11.812  67.983  0.00  0.00    +0.540 C 
ATOM      9  N   UNL     1     -10.889  11.784  69.278  0.00  0.00    -0.650 N 
ATOM     10  H   UNL     1     -10.169  12.356  69.588  0.00  0.00    +0.420 HD
ATOM     11  O   UNL     1     -12.090  11.027  67.573  0.00  0.00    -0.500 OA
BRANCH   9  12
ATOM     12  C   UNL     1     -11.540  10.929  70.177  0.00  0.00    +0.120 A 
ATOM     13  C   UNL     1     -11.181   9.591  70.247  0.00  0.00    +0.060 A 
ATOM     14  C   UNL     1     -11.826   8.749  71.134  0.00  0.00    -0.100 A 
ATOM     15  C   UNL     1     -12.827   9.236  71.952  0.00  0.00    +0.040 A 
ATOM     16  C   UNL     1     -13.191  10.569  71.887  0.00  0.00    -0.040 A 
ATOM     17  C   UNL     1     -11.434   7.295  71.209  0.00  0.00    +0.100 C 
ATOM     18  C   UNL     1     -12.546  11.421  71.005  0.00  0.00    +0.100 A 
BRANCH  18  19
ATOM     19  O   UNL     1     -12.902  12.732  70.941  0.00  0.00    -0.320 OA
ATOM     20  C   UNL     1     -13.569  13.279  72.079  0.00  0.00    +0.250 C 
ENDBRANCH  18  19
ENDBRANCH   9  12
ENDBRANCH   1   8
BRANCH   1  21
ATOM     21  S   UNL     1     -11.820  14.165  66.753  0.00  0.00    +0.090 S 
BRANCH  21  26
ATOM     22  N   UNL     1     -10.471  16.525  67.420  0.00  0.00    -0.450 N 
ATOM     23  C   UNL     1      -9.529  17.322  66.831  0.00  0.00    +0.160 A 
ATOM     24  N   UNL     1      -9.239  16.792  65.676  0.00  0.00    -0.260 NA
ATOM     25  N   UNL     1      -9.929  15.723  65.497  0.00  0.00    -0.270 NA
ATOM     26  C   UNL     1     -10.698  15.507  66.538  0.00  0.00    +0.170 A 
BRANCH  22  27
ATOM     27  C   UNL     1     -11.101  16.718  68.728  0.00  0.00    +0.350 C 
BRANCH  27  29
ATOM     28  C   UNL     1     -11.055  15.566  70.880  0.00  0.00    +0.040 C 
ATOM     29  C   UNL     1     -10.464  15.794  69.734  0.00  0.00    -0.050 C 
ENDBRANCH  27  29
ENDBRANCH  22  27
BRANCH  23  30
ATOM     30  C   UNL     1      -8.935  18.580  67.409  0.00  0.00    +0.170 C 
BRANCH  30  31
ATOM     31  C   UNL     1      -9.092  19.726  66.408  0.00  0.00    +0.260 C 
BRANCH  31  32
ATOM     32  N   UNL     1      -7.811  20.432  66.265  0.00  0.00    -0.380 N 
ATOM     33  C   UNL     1      -6.951  19.698  65.331  0.00  0.00    +0.250 C 
ATOM     34  C   UNL     1      -5.647  20.470  65.117  0.00  0.00    +0.050 C 
ATOM     35  C   UNL     1      -4.928  20.628  66.459  0.00  0.00    +0.040 C 
ATOM     36  C   UNL     1      -5.862  21.330  67.449  0.00  0.00    +0.060 C 
ATOM     37  C   UNL     1      -7.157  20.523  67.576  0.00  0.00    +0.240 C 
ATOM     38  H   UNL     1      -7.979  21.361  65.908  0.00  0.00    +0.430 HD
ENDBRANCH  31  32
ENDBRANCH  30  31
ENDBRANCH  23  30
ENDBRANCH  21  26
ENDBRANCH   1  21
TORSDOF 11
ENDMDL
