REMARK  Name = ZINC000514390803
REMARK  10 active torsions:
REMARK  status: ('A' for Active; 'I' for Inactive)
REMARK    1  A    between atoms: C2_2  and  C3_3
REMARK    2  A    between atoms: C3_3  and  N4_4
REMARK    3  A    between atoms: C5_5  and  C6_6
REMARK    4  A    between atoms: C6_6  and  C7_7
REMARK    5  A    between atoms: C7_7  and  N8_8
REMARK    6  A    between atoms: C17_17  and  S18_18
REMARK    7  A    between atoms: S18_18  and  C19_19
REMARK    8  A    between atoms: C19_19  and  C20_20
REMARK    9  A    between atoms: C29_29  and  C30_30
REMARK   10  A    between atoms: C33_33  and  C34_34
REMARK                            x       y       z     vdW  Elec       q    Type
REMARK                         _______ _______ _______ _____ _____    ______ ____
ROOT
ATOM      1  S   UNL     1       0.257  -3.865  -0.232  0.00  0.00    +0.140 S 
ENDROOT
BRANCH   1   6
ATOM      2  N   UNL     1       1.367  -1.676   1.111  0.00  0.00    -0.450 N 
ATOM      3  C   UNL     1       1.833  -1.426   2.373  0.00  0.00    +0.160 A 
ATOM      4  N   UNL     1       1.697  -2.523   3.061  0.00  0.00    -0.260 NA
ATOM      5  N   UNL     1       1.182  -3.444   2.327  0.00  0.00    -0.290 NA
ATOM      6  C   UNL     1       0.954  -2.977   1.121  0.00  0.00    +0.150 A 
BRANCH   2   7
ATOM      7  C   UNL     1       1.317  -0.740  -0.015  0.00  0.00    +0.340 C 
BRANCH   7   9
ATOM      8  C   UNL     1      -0.016   1.306   0.009  0.00  0.00    +0.040 C 
ATOM      9  C   UNL     1       0.002  -0.004   0.002  0.00  0.00    -0.050 C 
ENDBRANCH   7   9
ENDBRANCH   2   7
BRANCH   3  10
ATOM     10  C   UNL     1       2.397  -0.121   2.874  0.00  0.00    +0.170 C 
BRANCH  10  11
ATOM     11  C   UNL     1       1.268   0.736   3.449  0.00  0.00    +0.260 C 
BRANCH  11  12
ATOM     12  N   UNL     1       1.818   2.008   3.937  0.00  0.00    -0.380 N 
ATOM     13  C   UNL     1       0.757   2.777   4.598  0.00  0.00    +0.250 C 
ATOM     14  C   UNL     1       1.342   4.065   5.180  0.00  0.00    +0.050 C 
ATOM     15  C   UNL     1       1.950   4.899   4.049  0.00  0.00    +0.040 C 
ATOM     16  C   UNL     1       3.004   4.061   3.320  0.00  0.00    +0.050 C 
ATOM     17  C   UNL     1       2.356   2.773   2.806  0.00  0.00    +0.240 C 
ATOM     18  H   UNL     1       2.558   1.821   4.598  0.00  0.00    +0.430 HD
ENDBRANCH  11  12
ENDBRANCH  10  11
ENDBRANCH   3  10
ENDBRANCH   1   6
BRANCH   1  19
ATOM     19  C   UNL     1      -0.004  -5.476   0.550  0.00  0.00    +0.190 C 
BRANCH  19  20
ATOM     20  C   UNL     1      -0.612  -6.427  -0.449  0.00  0.00    +0.460 A 
ATOM     21  N   UNL     1      -0.847  -5.999  -1.658  0.00  0.00    -0.570 NA
ATOM     22  C   UNL     1      -1.386  -6.801  -2.591  0.00  0.00    +0.540 A 
ATOM     23  C   UNL     1      -1.715  -8.192  -2.229  0.00  0.00    -0.210 A 
ATOM     24  C   UNL     1      -1.444  -8.591  -0.932  0.00  0.00    +0.050 A 
ATOM     25  S   UNL     1      -1.907 -10.272  -0.710  0.00  0.00    +0.210 S 
ATOM     26  C   UNL     1      -2.459 -10.413  -2.368  0.00  0.00    -0.020 A 
ATOM     27  C   UNL     1      -2.298  -9.263  -3.026  0.00  0.00    +0.040 A 
ATOM     28  O   UNL     1      -1.600  -6.385  -3.719  0.00  0.00    -0.460 OA
ATOM     29  N   UNL     1      -0.884  -7.682  -0.060  0.00  0.00    -0.580 N 
ATOM     30  H   UNL     1      -0.689  -7.952   0.851  0.00  0.00    +0.430 HD
BRANCH  27  31
ATOM     31  C   UNL     1      -2.678  -9.091  -4.444  0.00  0.00    -0.150 A 
ATOM     32  C   UNL     1      -2.330  -9.918  -5.450  0.00  0.00    +0.030 A 
ATOM     33  C   UNL     1      -2.806  -9.548  -6.692  0.00  0.00    -0.010 A 
ATOM     34  C   UNL     1      -3.536  -8.431  -6.708  0.00  0.00    -0.180 A 
ATOM     35  C   UNL     1      -4.164  -7.823  -7.936  0.00  0.00    +0.140 C 
ATOM     36  S   UNL     1      -3.660  -7.778  -5.080  0.00  0.00    +0.180 S 
ENDBRANCH  27  31
ENDBRANCH  19  20
ENDBRANCH   1  19
TORSDOF 9
