REMARK  Name = ZINC000068249096
REMARK  8 active torsions:
REMARK  status: ('A' for Active; 'I' for Inactive)
REMARK    1  A    between atoms: C2_2  and  C3_3
REMARK    2  A    between atoms: C2_2  and  C34_34
REMARK    3  A    between atoms: C3_3  and  N4_4
REMARK    4  A    between atoms: C10_10  and  O12_12
REMARK    5  A    between atoms: O12_12  and  C13_13
REMARK    6  A    between atoms: N15_15  and  C16_16
REMARK    7  A    between atoms: N15_15  and  C26_26
REMARK    8  A    between atoms: C16_16  and  C17_17
REMARK                            x       y       z     vdW  Elec       q    Type
REMARK                         _______ _______ _______ _____ _____    ______ ____
ROOT
ATOM      1  C   UNL     1       6.610   2.505  -1.100  0.00  0.00    +0.660 C 
ATOM      2  N   UNL     1       7.371   2.899  -2.140  0.00  0.00    -0.540 N 
ATOM      3  O   UNL     1       6.761   3.016  -0.008  0.00  0.00    -0.540 OA
ENDROOT
BRANCH   2   4
ATOM      4  C   UNL     1       7.127   2.387  -3.420  0.00  0.00    +0.150 A 
ATOM      5  C   UNL     1       6.689   3.228  -4.434  0.00  0.00    +0.010 A 
ATOM      6  C   UNL     1       6.449   2.721  -5.696  0.00  0.00    +0.070 A 
ATOM      7  C   UNL     1       6.644   1.377  -5.951  0.00  0.00    +0.000 A 
ATOM      8  C   UNL     1       7.080   0.534  -4.942  0.00  0.00    +0.120 A 
ATOM      9  F   UNL     1       7.269  -0.780  -5.195  0.00  0.00    -0.130 F 
ATOM     10  C   UNL     1       7.328   1.038  -3.679  0.00  0.00    +0.000 A 
ENDBRANCH   2   4
BRANCH   1  11
ATOM     11  O   UNL     1       5.682   1.544  -1.271  0.00  0.00    -0.350 OA
BRANCH  11  16
ATOM     12  N   UNL     1       2.445   1.179  -0.094  0.00  0.00    -0.240 N 
ATOM     13  C   UNL     1       2.413   0.258   1.044  0.00  0.00    +0.250 C 
ATOM     14  C   UNL     1       3.636  -0.661   1.009  0.00  0.00    +0.090 C 
ATOM     15  C   UNL     1       4.489  -0.305  -0.216  0.00  0.00    +0.030 C 
ATOM     16  C   UNL     1       4.899   1.170  -0.107  0.00  0.00    +0.230 C 
ATOM     17  C   UNL     1       3.624  -0.474  -1.472  0.00  0.00    +0.090 C 
ATOM     18  C   UNL     1       3.643   2.021  -0.031  0.00  0.00    +0.250 C 
ATOM     19  C   UNL     1       2.402   0.439  -1.358  0.00  0.00    +0.250 C 
BRANCH  12  20
ATOM     20  C   UNL     1       1.262   2.047  -0.023  0.00  0.00    +0.270 C 
BRANCH  20  22
ATOM     21  O   UNL     1       2.191   2.665   2.058  0.00  0.00    -0.440 OA
ATOM     22  C   UNL     1       1.314   2.864   1.242  0.00  0.00    +0.430 C 
BRANCH  22  23
ATOM     23  C   UNL     1       0.339   3.857   1.482  0.00  0.00    -0.350 A 
ATOM     24  C   UNL     1       0.279   4.663   2.591  0.00  0.00    +0.160 A 
ATOM     25  C   UNL     1      -0.775   5.541   2.565  0.00  0.00    +0.000 A 
ATOM     26  C   UNL     1      -1.554   5.465   1.477  0.00  0.00    +0.000 A 
ATOM     27  S   UNL     1      -0.989   4.265   0.404  0.00  0.00    +0.230 S 
ENDBRANCH  22  23
ENDBRANCH  20  22
ENDBRANCH  12  20
ENDBRANCH  11  16
ENDBRANCH   1  11
BRANCH   2  28
ATOM     28  C   UNL     1       8.454   3.864  -1.932  0.00  0.00    +0.400 C 
BRANCH  28  29
ATOM     29  C   UNL     1       9.727   3.127  -1.605  0.00  0.00    -0.080 A 
ATOM     30  C   UNL     1      10.038   2.836  -0.290  0.00  0.00    +0.050 A 
ATOM     31  C   UNL     1      11.207   2.159   0.012  0.00  0.00    +0.100 A 
ATOM     32  C   UNL     1      12.066   1.774  -1.005  0.00  0.00    +0.050 A 
ATOM     33  C   UNL     1      11.753   2.067  -2.323  0.00  0.00    +0.100 A 
ATOM     34  F   UNL     1      12.588   1.692  -3.316  0.00  0.00    -0.110 F 
ATOM     35  F   UNL     1      13.207   1.113  -0.712  0.00  0.00    -0.110 F 
ATOM     36  F   UNL     1      11.510   1.874   1.298  0.00  0.00    -0.110 F 
ATOM     37  C   UNL     1      10.580   2.739  -2.621  0.00  0.00    +0.050 A 
ENDBRANCH  28  29
ENDBRANCH   2  28
TORSDOF 8
