REMARK  Name = ZINC000514391473
REMARK  13 active torsions:
REMARK  status: ('A' for Active; 'I' for Inactive)
REMARK    1  A    between atoms: C2_2  and  C3_3
REMARK    2  A    between atoms: C3_3  and  N4_4
REMARK    3  A    between atoms: C5_5  and  C6_6
REMARK    4  A    between atoms: C6_6  and  C7_7
REMARK    5  A    between atoms: C7_7  and  N8_8
REMARK    6  A    between atoms: C17_17  and  S18_18
REMARK    7  A    between atoms: S18_18  and  C19_19
REMARK    8  A    between atoms: C19_19  and  C21_21
REMARK    9  A    between atoms: C19_19  and  C33_33
REMARK   10  A    between atoms: N23_23  and  C24_24
REMARK   11  A    between atoms: C26_26  and  C27_27
REMARK   12  A    between atoms: C30_30  and  O31_31
REMARK   13  A    between atoms: O31_31  and  C32_32
REMARK                            x       y       z     vdW  Elec       q    Type
REMARK                         _______ _______ _______ _____ _____    ______ ____
ROOT
ATOM      1  C   UNL     1       0.140  -5.467  -0.597  0.00  0.00    +0.070 C 
ENDROOT
BRANCH   1   2
ATOM      2  C   UNL     1       1.154  -5.284  -1.697  0.00  0.00    -0.100 A 
ATOM      3  C   UNL     1       2.419  -4.814  -1.399  0.00  0.00    +0.040 A 
ATOM      4  C   UNL     1       3.349  -4.646  -2.407  0.00  0.00    +0.000 A 
ATOM      5  C   UNL     1       3.014  -4.948  -3.714  0.00  0.00    +0.020 A 
ATOM      6  C   UNL     1       1.749  -5.419  -4.012  0.00  0.00    +0.010 A 
ATOM      7  C   UNL     1       0.820  -5.591  -3.002  0.00  0.00    +0.060 A 
ENDBRANCH   1   2
BRANCH   1   8
ATOM      8  C   UNL     1       0.669  -6.450   0.416  0.00  0.00    +0.540 C 
ATOM      9  N   UNL     1       0.595  -7.773   0.173  0.00  0.00    -0.650 N 
ATOM     10  H   UNL     1       0.144  -8.096  -0.622  0.00  0.00    +0.420 HD
ATOM     11  O   UNL     1       1.161  -6.049   1.450  0.00  0.00    -0.510 OA
BRANCH   9  12
ATOM     12  C   UNL     1       1.171  -8.683   1.070  0.00  0.00    +0.110 A 
ATOM     13  C   UNL     1       1.165  -8.415   2.431  0.00  0.00    +0.070 A 
ATOM     14  C   UNL     1       1.734  -9.315   3.314  0.00  0.00    -0.100 A 
ATOM     15  C   UNL     1       2.308 -10.481   2.845  0.00  0.00    +0.040 A 
ATOM     16  C   UNL     1       2.317 -10.754   1.489  0.00  0.00    -0.050 A 
ATOM     17  C   UNL     1       1.727  -9.022   4.793  0.00  0.00    +0.100 C 
ATOM     18  C   UNL     1       1.745  -9.861   0.598  0.00  0.00    +0.100 A 
BRANCH  18  19
ATOM     19  O   UNL     1       1.753 -10.129  -0.735  0.00  0.00    -0.320 OA
ATOM     20  C   UNL     1       2.370 -11.350  -1.148  0.00  0.00    +0.250 C 
ENDBRANCH  18  19
ENDBRANCH   9  12
ENDBRANCH   1   8
BRANCH   1  21
ATOM     21  S   UNL     1      -0.170  -3.877   0.210  0.00  0.00    +0.100 S 
BRANCH  21  26
ATOM     22  N   UNL     1      -1.359  -1.707  -1.097  0.00  0.00    -0.450 N 
ATOM     23  C   UNL     1      -1.839  -1.454  -2.352  0.00  0.00    +0.150 A 
ATOM     24  N   UNL     1      -1.671  -2.537  -3.057  0.00  0.00    -0.260 NA
ATOM     25  N   UNL     1      -1.122  -3.450  -2.338  0.00  0.00    -0.270 NA
ATOM     26  C   UNL     1      -0.903  -2.994  -1.127  0.00  0.00    +0.170 A 
BRANCH  22  27
ATOM     27  C   UNL     1      -1.334  -0.786   0.042  0.00  0.00    +0.350 C 
BRANCH  27  29
ATOM     28  C   UNL     1      -0.069   1.303   0.041  0.00  0.00    +0.040 C 
ATOM     29  C   UNL     1      -0.043  -0.007   0.030  0.00  0.00    -0.050 C 
ENDBRANCH  27  29
ENDBRANCH  22  27
BRANCH  23  30
ATOM     30  C   UNL     1      -2.449  -0.162  -2.832  0.00  0.00    +0.170 C 
BRANCH  30  31
ATOM     31  C   UNL     1      -1.351   0.740  -3.400  0.00  0.00    +0.260 C 
BRANCH  31  32
ATOM     32  N   UNL     1      -1.946   1.999  -3.867  0.00  0.00    -0.380 N 
ATOM     33  C   UNL     1      -0.914   2.812  -4.522  0.00  0.00    +0.250 C 
ATOM     34  C   UNL     1      -1.544   4.089  -5.083  0.00  0.00    +0.050 C 
ATOM     35  C   UNL     1      -2.174   4.886  -3.937  0.00  0.00    +0.040 C 
ATOM     36  C   UNL     1      -3.195   4.003  -3.215  0.00  0.00    +0.060 C 
ATOM     37  C   UNL     1      -2.502   2.731  -2.723  0.00  0.00    +0.240 C 
ATOM     38  H   UNL     1      -2.682   1.798  -4.527  0.00  0.00    +0.430 HD
ENDBRANCH  31  32
ENDBRANCH  30  31
ENDBRANCH  23  30
ENDBRANCH  21  26
ENDBRANCH   1  21
TORSDOF 11
