@<TRIPOS>MOLECULE
ZINC000524439106
63    66    1     0     0
SMALL
USER_CHARGES
@<TRIPOS>ATOM
1      N1      0.8629    1.1373   -2.5697 N.1      1 ZINC000524439106   -0.3700
2      C2      0.8144    2.1567   -2.0709 C.1      1 ZINC000524439106    0.2200
3      C3      0.7532    3.4418   -1.4420 C.ar     1 ZINC000524439106    0.0200
4      C4     -0.4667    4.1125   -1.3343 C.ar     1 ZINC000524439106   -0.0700
5      C5     -0.5184    5.3502   -0.7273 C.ar     1 ZINC000524439106   -0.1000
6      C6      0.6350    5.9274   -0.2264 C.ar     1 ZINC000524439106   -0.1400
7      C7      0.5706    7.2798    0.4353 C.3      1 ZINC000524439106    0.0300
8      N8      0.3234    7.1100    1.8734 N.4      1 ZINC000524439106   -0.3600
9      H9      1.0357    6.5013    2.2477 H        1 ZINC000524439106    0.4200
10     C10     0.4460    8.4149    2.5194 C.3      1 ZINC000524439106   -0.0100
11     C11     0.9137    8.2241    3.9452 C.3      1 ZINC000524439106   -0.1600
12     C12    -0.3074    8.1580    4.8805 C.3      1 ZINC000524439106    0.1200
13     N13    -1.4058    7.3852    4.2661 N.am     1 ZINC000524439106   -0.6300
14     C14    -2.6689    7.8378    4.3932 C.2      1 ZINC000524439106    0.7000
15     O15    -2.8992    8.8115    5.0840 O.2      1 ZINC000524439106   -0.5400
16     N16    -3.6767    7.2110    3.7545 N.am     1 ZINC000524439106   -0.6800
17     C17    -4.9720    7.7447    3.7960 C.ar     1 ZINC000524439106    0.1200
18     C18    -5.1552    9.1200    3.8374 C.ar     1 ZINC000524439106   -0.0700
19     C19    -6.4319    9.6460    3.8783 C.ar     1 ZINC000524439106   -0.1800
20     C20    -7.5309    8.8006    3.8785 C.ar     1 ZINC000524439106    0.1400
21     O21    -8.7875    9.3192    3.9188 O.3      1 ZINC000524439106   -0.2900
22     C22    -8.9006   10.7432    3.9595 C.3      1 ZINC000524439106    0.1000
23     C23   -10.3565   11.1304    4.0005 C.ar     1 ZINC000524439106   -0.1000
24     C24   -11.0497   11.3345    2.8208 C.ar     1 ZINC000524439106   -0.0600
25     C25   -12.3867   11.6903    2.8492 C.ar     1 ZINC000524439106   -0.1200
26     C26   -13.0374   11.8434    4.0556 C.ar     1 ZINC000524439106   -0.0600
27     C27   -12.3438   11.6385    5.2503 C.ar     1 ZINC000524439106   -0.0300
28     C28   -13.0130   11.7957    6.5065 C.1      1 ZINC000524439106    0.2500
29     N29   -13.5439   11.9204    7.5031 N.1      1 ZINC000524439106   -0.4000
30     C30   -10.9963   11.2751    5.2142 C.ar     1 ZINC000524439106   -0.0500
31     C31    -7.3489    7.4248    3.8371 C.ar     1 ZINC000524439106   -0.0500
32     Cl32   -8.7252    6.3667    3.8368 Cl       1 ZINC000524439106   -0.0400
33     C33    -6.0725    6.8980    3.7899 C.ar     1 ZINC000524439106   -0.0900
34     C34    -1.1741    6.1586    3.5314 C.3      1 ZINC000524439106    0.0900
35     C35    -0.9313    6.4825    2.0388 C.3      1 ZINC000524439106   -0.0600
36     C36     1.8472    5.2683   -0.3298 C.ar     1 ZINC000524439106   -0.0900
37     C37     1.9123    4.0274   -0.9288 C.ar     1 ZINC000524439106   -0.0700
38     H38    -1.3677    3.6634   -1.7255 H        1 ZINC000524439106    0.1500
39     H39    -1.4613    5.8701   -0.6433 H        1 ZINC000524439106    0.1400
40     H40     1.5163    7.8016    0.2883 H        1 ZINC000524439106    0.1400
41     H41    -0.2381    7.8621   -0.0062 H        1 ZINC000524439106    0.1400
42     H42     1.1701    9.0229    1.9771 H        1 ZINC000524439106    0.1400
43     H43    -0.5229    8.9142    2.5179 H        1 ZINC000524439106    0.1300
44     H44     1.4801    7.2959    4.0208 H        1 ZINC000524439106    0.0900
45     H45     1.5483    9.0617    4.2347 H        1 ZINC000524439106    0.1300
46     H46    -0.0155    7.6824    5.8168 H        1 ZINC000524439106    0.0900
47     H47    -0.6545    9.1703    5.0876 H        1 ZINC000524439106    0.1100
48     H48    -3.5056    6.3906    3.2662 H        1 ZINC000524439106    0.4000
49     H49    -4.2995    9.7789    3.8379 H        1 ZINC000524439106    0.1400
50     H50    -6.5741   10.7161    3.9105 H        1 ZINC000524439106    0.1400
51     H51    -8.3987   11.1222    4.8497 H        1 ZINC000524439106    0.0800
52     H52    -8.4359   11.1702    3.0708 H        1 ZINC000524439106    0.0800
53     H53   -10.5450   11.2159    1.8734 H        1 ZINC000524439106    0.1300
54     H54   -12.9218   11.8488    1.9245 H        1 ZINC000524439106    0.1400
55     H55   -14.0808   12.1215    4.0763 H        1 ZINC000524439106    0.1400
56     H56   -10.4541   11.1151    6.1344 H        1 ZINC000524439106    0.1400
57     H57    -5.9306    5.8279    3.7578 H        1 ZINC000524439106    0.1400
58     H58    -0.3008    5.6507    3.9406 H        1 ZINC000524439106    0.1100
59     H59    -2.0455    5.5105    3.6244 H        1 ZINC000524439106    0.1200
60     H60    -1.7199    7.1439    1.6800 H        1 ZINC000524439106    0.1300
61     H61    -0.9481    5.5581    1.4615 H        1 ZINC000524439106    0.1500
62     H62     2.7438    5.7247    0.0630 H        1 ZINC000524439106    0.1400
63     H63     2.8591    3.5138   -1.0085 H        1 ZINC000524439106    0.1500
@<TRIPOS>BOND
1     1     2     3
2     2     3     1
3     3     37    ar
4     3     4     ar
5     4     5     ar
6     4     38    1
7     5     6     ar
8     5     39    1
9     6     7     1
10    6     36    ar
11    7     8     1
12    7     40    1
13    7     41    1
14    8     9     1
15    8     35    1
16    8     10    1
17    10    11    1
18    10    42    1
19    10    43    1
20    11    12    1
21    11    44    1
22    11    45    1
23    12    13    1
24    12    46    1
25    12    47    1
26    13    14    am
27    13    34    1
28    14    15    2
29    14    16    am
30    16    17    1
31    16    48    1
32    17    33    ar
33    17    18    ar
34    18    19    ar
35    18    49    1
36    19    20    ar
37    19    50    1
38    20    21    1
39    20    31    ar
40    21    22    1
41    22    23    1
42    22    51    1
43    22    52    1
44    23    30    ar
45    23    24    ar
46    24    25    ar
47    24    53    1
48    25    26    ar
49    25    54    1
50    26    27    ar
51    26    55    1
52    27    28    1
53    27    30    ar
54    28    29    3
55    30    56    1
56    31    32    1
57    31    33    ar
58    33    57    1
59    34    35    1
60    34    58    1
61    34    59    1
62    35    60    1
63    35    61    1
64    36    37    ar
65    36    62    1
66    37    63    1
@<TRIPOS>SUBSTRUCTURE
1   ZINC000524439106 1     RESIDUE    1   A     ZIN   1
