REMARK  Name = ZINC000022734839
REMARK  13 active torsions:
REMARK  status: ('A' for Active; 'I' for Inactive)
REMARK    1  A    between atoms: C1_1  and  C2_2
REMARK    2  A    between atoms: C2_2  and  C3_3
REMARK    3  A    between atoms: C3_3  and  C4_4
REMARK    4  A    between atoms: C3_3  and  C6_6
REMARK    5  A    between atoms: C4_4  and  C5_5
REMARK    6  A    between atoms: N9_9  and  C10_10
REMARK    7  A    between atoms: C10_10  and  C11_11
REMARK    8  A    between atoms: C10_10  and  C21_21
REMARK    9  A    between atoms: C11_11  and  C13_13
REMARK   10  A    between atoms: C21_21  and  N23_23
REMARK   11  A    between atoms: N23_23  and  C24_24
REMARK   12  A    between atoms: C24_24  and  C25_25
REMARK   13  A    between atoms: C25_25  and  C26_26
REMARK                            x       y       z     vdW  Elec       q    Type
REMARK                         _______ _______ _______ _____ _____    ______ ____
ROOT
ATOM      1  C   UNL     1       0.391  -6.187  -1.525  0.00  0.00    +0.240 C 
ENDROOT
BRANCH   1   5
ATOM      2  C   UNL     1       0.632  -2.000  -1.327  0.00  0.00    +0.070 A 
ATOM      3  C   UNL     1       1.159  -2.790  -0.317  0.00  0.00    +0.070 A 
ATOM      4  C   UNL     1       1.061  -4.165  -0.416  0.00  0.00    +0.320 A 
ATOM      5  N   UNL     1       0.475  -4.726  -1.456  0.00  0.00    -0.330 N 
ATOM      6  C   UNL     1      -0.038  -4.007  -2.435  0.00  0.00    +0.380 A 
ATOM      7  C   UNL     1       0.018  -2.626  -2.402  0.00  0.00    +0.060 A 
BRANCH   2   8
ATOM      8  C   UNL     1       0.718  -0.498  -1.257  0.00  0.00    +0.030 C 
BRANCH   8  10
ATOM      9  C   UNL     1      -0.019   1.526   0.010  0.00  0.00    +0.020 C 
ATOM     10  C   UNL     1       0.002  -0.004   0.002  0.00  0.00    +0.020 C 
ENDBRANCH   8  10
BRANCH   8  11
ATOM     11  C   UNL     1       2.187  -0.073  -1.207  0.00  0.00    +0.040 C 
ATOM     12  C   UNL     1       2.874  -0.457  -2.520  0.00  0.00    +0.020 C 
ENDBRANCH   8  11
ENDBRANCH   2   8
ENDBRANCH   1   5
BRANCH   1  13
ATOM     13  C   UNL     1       1.103  -6.674  -2.761  0.00  0.00    +0.230 C 
ATOM     14  S   UNL     1       1.796  -5.625  -3.749  0.00  0.00    -0.370 S 
BRANCH  13  15
ATOM     15  N   UNL     1       1.155  -7.992  -3.033  0.00  0.00    -0.610 N 
ATOM     16  H   UNL     1       0.735  -8.629  -2.434  0.00  0.00    +0.410 HD
BRANCH  15  17
ATOM     17  C   UNL     1       1.847  -8.466  -4.235  0.00  0.00    +0.320 C 
BRANCH  17  18
ATOM     18  C   UNL     1       1.759  -9.991  -4.307  0.00  0.00    +0.070 C 
BRANCH  18  19
ATOM     19  C   UNL     1       2.471 -10.478  -5.543  0.00  0.00    -0.100 A 
ATOM     20  C   UNL     1       1.779 -10.608  -6.732  0.00  0.00    +0.010 A 
ATOM     21  C   UNL     1       2.432 -11.054  -7.866  0.00  0.00    +0.010 A 
ATOM     22  C   UNL     1       3.777 -11.370  -7.810  0.00  0.00    +0.020 A 
ATOM     23  C   UNL     1       4.468 -11.239  -6.621  0.00  0.00    +0.010 A 
ATOM     24  C   UNL     1       3.817 -10.789  -5.488  0.00  0.00    +0.010 A 
ENDBRANCH  18  19
ENDBRANCH  17  18
ENDBRANCH  15  17
ENDBRANCH  13  15
ENDBRANCH   1  13
BRANCH   1  25
ATOM     25  C   UNL     1      -1.056  -6.605  -1.581  0.00  0.00    +0.380 C 
ATOM     26  O   UNL     1      -1.586  -6.813  -2.652  0.00  0.00    -0.360 OA
BRANCH  25  27
ATOM     27  C   UNL     1      -1.825  -6.760  -0.338  0.00  0.00    -0.180 A 
ATOM     28  C   UNL     1      -1.219  -6.515   0.899  0.00  0.00    +0.080 A 
ATOM     29  C   UNL     1      -1.946  -6.662   2.060  0.00  0.00    +0.050 A 
ATOM     30  C   UNL     1      -3.275  -7.052   2.006  0.00  0.00    +0.020 A 
ATOM     31  C   UNL     1      -3.883  -7.297   0.786  0.00  0.00    +0.050 A 
ATOM     32 CL   UNL     1      -4.182  -7.234   3.475  0.00  0.00    -0.020 Cl
ATOM     33  C   UNL     1      -3.170  -7.148  -0.386  0.00  0.00    +0.040 A 
ATOM     34 CL   UNL     1      -3.934  -7.454  -1.915  0.00  0.00    +0.000 Cl
ENDBRANCH  25  27
ENDBRANCH   1  25
TORSDOF 11
