MODEL 1
REMARK VINA RESULT:      -7.4      0.000      0.000
REMARK  Name = ZINC000524439106
REMARK  8 active torsions:
REMARK  status: ('A' for Active; 'I' for Inactive)
REMARK    1  A    between atoms: C2_2  and  C3_3
REMARK    2  A    between atoms: C6_6  and  C7_7
REMARK    3  A    between atoms: C7_7  and  N8_8
REMARK    4  A    between atoms: N16_16  and  C17_17
REMARK    5  A    between atoms: C20_20  and  O21_21
REMARK    6  A    between atoms: O21_21  and  C22_22
REMARK    7  A    between atoms: C22_22  and  C23_23
REMARK    8  A    between atoms: C27_27  and  C28_28
REMARK                            x       y       z     vdW  Elec       q    Type
REMARK                         _______ _______ _______ _____ _____    ______ ____
ROOT
ATOM      1  N   UNL     1      -9.553  16.123  67.746  0.00  0.00    -0.360 N 
ATOM      2  C   UNL     1      -9.506  15.213  66.604  0.00  0.00    +0.260 C 
ATOM      3  C   UNL     1     -10.783  15.350  65.804  0.00  0.00    +0.060 C 
ATOM      4  C   UNL     1     -11.800  14.297  66.279  0.00  0.00    +0.320 C 
ATOM      5  N   UNL     1     -11.764  14.147  67.748  0.00  0.00    -0.630 N 
ATOM      6  C   UNL     1     -11.648  15.283  68.639  0.00  0.00    +0.320 C 
ATOM      7  C   UNL     1     -11.839  12.910  68.278  0.00  0.00    +0.700 C 
ATOM      8  N   UNL     1     -11.703  12.737  69.607  0.00  0.00    -0.680 N 
ATOM      9  H   UNL     1     -11.625  13.508  70.191  0.00  0.00    +0.400 HD
ATOM     10  O   UNL     1     -12.031  11.951  67.556  0.00  0.00    -0.540 OA
ATOM     11  C   UNL     1     -10.157  15.589  68.906  0.00  0.00    +0.220 C 
ATOM     12  H   UNL     1     -10.065  16.950  67.473  0.00  0.00    +0.420 HD
ENDROOT
BRANCH   8  13
ATOM     13  C   UNL     1     -11.669  11.444  70.146  0.00  0.00    +0.120 A 
ATOM     14  C   UNL     1     -10.606  10.599  69.859  0.00  0.00    +0.070 A 
ATOM     15  C   UNL     1     -10.575   9.324  70.389  0.00  0.00    -0.040 A 
ATOM     16  C   UNL     1     -11.604   8.887  71.209  0.00  0.00    +0.140 A 
ATOM     17  C   UNL     1     -12.668   9.731  71.496  0.00  0.00    -0.050 A 
ATOM     18 CL   UNL     1     -13.957   9.184  72.522  0.00  0.00    -0.040 Cl
ATOM     19  C   UNL     1     -12.698  11.009  70.971  0.00  0.00    +0.050 A 
BRANCH  16  20
ATOM     20  O   UNL     1     -11.573   7.632  71.730  0.00  0.00    -0.290 OA
BRANCH  20  21
ATOM     21  C   UNL     1     -12.155   6.589  70.946  0.00  0.00    +0.260 C 
BRANCH  21  22
ATOM     22  C   UNL     1     -11.063   5.779  70.295  0.00  0.00    -0.100 A 
ATOM     23  C   UNL     1     -10.249   4.971  71.068  0.00  0.00    +0.070 A 
ATOM     24  C   UNL     1      -9.244   4.225  70.479  0.00  0.00    +0.020 A 
ATOM     25  C   UNL     1      -9.048   4.283  69.115  0.00  0.00    +0.080 A 
ATOM     26  C   UNL     1      -9.864   5.097  68.329  0.00  0.00    -0.030 A 
ATOM     27  C   UNL     1     -10.880   5.844  68.929  0.00  0.00    +0.090 A 
BRANCH  26  28
ATOM     28  C   UNL     1      -9.666   5.162  66.911  0.00  0.00    +0.250 C 
ATOM     29  N   UNL     1      -9.509   5.214  65.788  0.00  0.00    -0.400 NA
ENDBRANCH  26  28
ENDBRANCH  21  22
ENDBRANCH  20  21
ENDBRANCH  16  20
ENDBRANCH   8  13
BRANCH   1  30
ATOM     30  C   UNL     1      -8.178  16.521  68.078  0.00  0.00    +0.310 C 
BRANCH  30  34
ATOM     31  C   UNL     1      -6.845  19.485  65.300  0.00  0.00    +0.020 A 
ATOM     32  C   UNL     1      -6.112  18.311  65.477  0.00  0.00    +0.080 A 
ATOM     33  C   UNL     1      -6.548  17.358  66.375  0.00  0.00    +0.040 A 
ATOM     34  C   UNL     1      -7.708  17.566  67.100  0.00  0.00    -0.140 A 
ATOM     35  C   UNL     1      -8.439  18.728  66.929  0.00  0.00    +0.050 A 
ATOM     36  C   UNL     1      -8.011  19.692  66.039  0.00  0.00    +0.080 A 
BRANCH  31  38
ATOM     37  N   UNL     1      -6.045  21.266  63.631  0.00  0.00    -0.370 NA
ATOM     38  C   UNL     1      -6.398  20.478  64.370  0.00  0.00    +0.220 C 
ENDBRANCH  31  38
ENDBRANCH  30  34
ENDBRANCH   1  30
TORSDOF 8
ENDMDL
