@<TRIPOS>MOLECULE
ZINC000028781045
59    61    1     0     0
SMALL
USER_CHARGES
@<TRIPOS>ATOM
1      C1     -0.7029    0.5557    0.5218 C.3      1 ZINC000028781045   -0.1500
2      C2     -0.5512   -0.9462    0.2727 C.3      1 ZINC000028781045   -0.0500
3      C3      0.1388   -1.5953    1.4741 C.3      1 ZINC000028781045   -0.1500
4      C4     -1.9333   -1.5731    0.0784 C.3      1 ZINC000028781045   -0.1600
5      C5      0.2798   -1.1688   -0.9646 C.ar     1 ZINC000028781045    0.0600
6      C6     -0.2397   -1.8485   -2.0557 C.ar     1 ZINC000028781045   -0.1200
7      C7      0.5521   -2.0336   -3.1731 C.ar     1 ZINC000028781045    0.1200
8      N8      1.7872   -1.5730   -3.2085 N.ar     1 ZINC000028781045   -0.3400
9      C9      2.5951   -1.7894   -4.4113 C.3      1 ZINC000028781045    0.0600
10     C10     3.0059   -0.4585   -4.9867 C.2      1 ZINC000028781045    0.4200
11     O11     3.0661    0.5187   -4.2713 O.2      1 ZINC000028781045   -0.3900
12     C12     3.3340   -0.3448   -6.4168 C.ar     1 ZINC000028781045   -0.1200
13     C13     3.2602   -1.4684   -7.2463 C.ar     1 ZINC000028781045   -0.0800
14     C14     3.5693   -1.3538   -8.5852 C.ar     1 ZINC000028781045   -0.0600
15     C15     3.9521   -0.1310   -9.1086 C.ar     1 ZINC000028781045    0.0000
16     N16     4.2826   -0.0168  -10.5467 N.pl3    1 ZINC000028781045    0.0100
17     O17     4.2173   -0.9974  -11.2663 O.2      1 ZINC000028781045   -0.1400
18     O18     4.6199    1.0577  -11.0107 O.2      1 ZINC000028781045   -0.1300
19     C19     4.0271    0.9856   -8.2943 C.ar     1 ZINC000028781045   -0.0600
20     C20     3.7157    0.8885   -6.9545 C.ar     1 ZINC000028781045   -0.0400
21     C21     3.8251   -2.5834   -4.0541 C.2      1 ZINC000028781045    0.1900
22     S22     5.2391   -1.8493   -3.9178 S.2      1 ZINC000028781045   -0.2900
23     N23     3.7334   -3.9124   -3.8495 N.am     1 ZINC000028781045   -0.5700
24     C24     4.8489   -4.6305   -3.4014 C.ar     1 ZINC000028781045    0.0600
25     C25     5.6672   -4.0977   -2.4140 C.ar     1 ZINC000028781045   -0.0400
26     C26     6.7671   -4.8064   -1.9726 C.ar     1 ZINC000028781045   -0.1200
27     C27     7.0547   -6.0503   -2.5153 C.ar     1 ZINC000028781045    0.1400
28     O28     8.1376   -6.7477   -2.0798 O.3      1 ZINC000028781045   -0.3100
29     C29     8.3740   -8.0217   -2.6823 C.3      1 ZINC000028781045    0.4100
30     F30     7.2739   -8.8558   -2.4561 F        1 ZINC000028781045   -0.2000
31     F31     8.5605   -7.8590   -4.0593 F        1 ZINC000028781045   -0.1900
32     C32     6.2377   -6.5832   -3.5017 C.ar     1 ZINC000028781045   -0.1800
33     C33     5.1342   -5.8782   -3.9400 C.ar     1 ZINC000028781045   -0.0600
34     C34     2.3141   -0.9222   -2.1897 C.ar     1 ZINC000028781045    0.1400
35     C35     1.5802   -0.6938   -1.0411 C.ar     1 ZINC000028781045   -0.1200
36     H36     0.2817    1.0023    0.6603 H        1 ZINC000028781045    0.0700
37     H37    -1.1945    1.0182   -0.3341 H        1 ZINC000028781045    0.0700
38     H38    -1.3040    0.7167    1.4167 H        1 ZINC000028781045    0.0800
39     H39    -0.4622   -1.4343    2.3691 H        1 ZINC000028781045    0.0800
40     H40     0.2469   -2.6653    1.2967 H        1 ZINC000028781045    0.0600
41     H41     1.1235   -1.1487    1.6126 H        1 ZINC000028781045    0.0700
42     H42    -2.4249   -1.1107   -0.7775 H        1 ZINC000028781045    0.0700
43     H43    -1.8252   -2.6431   -0.0991 H        1 ZINC000028781045    0.0700
44     H44    -2.5344   -1.4121    0.9733 H        1 ZINC000028781045    0.0800
45     H45    -1.2503   -2.2287   -2.0325 H        1 ZINC000028781045    0.1900
46     H46     0.1549   -2.5620   -4.0272 H        1 ZINC000028781045    0.2100
47     H47     2.0094   -2.3387   -5.1484 H        1 ZINC000028781045    0.1800
48     H48     2.9623   -2.4233   -6.8392 H        1 ZINC000028781045    0.1400
49     H49     3.5128   -2.2205   -9.2271 H        1 ZINC000028781045    0.1700
50     H50     4.3267    1.9363   -8.7100 H        1 ZINC000028781045    0.1700
51     H51     3.7743    1.7607   -6.3204 H        1 ZINC000028781045    0.1700
52     H52     2.8946   -4.3715   -4.0127 H        1 ZINC000028781045    0.4100
53     H53     5.4437   -3.1292   -1.9917 H        1 ZINC000028781045    0.1400
54     H54     7.4038   -4.3920   -1.2050 H        1 ZINC000028781045    0.1500
55     H55     9.2661   -8.4704   -2.2454 H        1 ZINC000028781045    0.1900
56     H56     6.4622   -7.5516   -3.9237 H        1 ZINC000028781045    0.1500
57     H57     4.4980   -6.2934   -4.7077 H        1 ZINC000028781045    0.1400
58     H58     3.3294   -0.5600   -2.2552 H        1 ZINC000028781045    0.2100
59     H59     2.0171   -0.1599   -0.2101 H        1 ZINC000028781045    0.1900
@<TRIPOS>BOND
1     1     2     1
2     1     36    1
3     1     37    1
4     1     38    1
5     2     3     1
6     2     4     1
7     2     5     1
8     3     39    1
9     3     40    1
10    3     41    1
11    4     42    1
12    4     43    1
13    4     44    1
14    5     35    ar
15    5     6     ar
16    6     7     ar
17    6     45    1
18    7     8     ar
19    7     46    1
20    8     9     1
21    8     34    ar
22    9     10    1
23    9     21    1
24    9     47    1
25    10    11    2
26    10    12    1
27    12    20    ar
28    12    13    ar
29    13    14    ar
30    13    48    1
31    14    15    ar
32    14    49    1
33    15    16    1
34    15    19    ar
35    16    17    2
36    16    18    2
37    19    20    ar
38    19    50    1
39    20    51    1
40    21    22    2
41    21    23    am
42    23    24    1
43    23    52    1
44    24    33    ar
45    24    25    ar
46    25    26    ar
47    25    53    1
48    26    27    ar
49    26    54    1
50    27    28    1
51    27    32    ar
52    28    29    1
53    29    30    1
54    29    31    1
55    29    55    1
56    32    33    ar
57    32    56    1
58    33    57    1
59    34    35    ar
60    34    58    1
61    35    59    1
@<TRIPOS>SUBSTRUCTURE
1   ZINC000028781045 1     RESIDUE    1   A     ZIN   1
