MODEL 1
REMARK VINA RESULT:      -6.6      0.000      0.000
REMARK  Name = ZINC000027310962
REMARK  15 active torsions:
REMARK  status: ('A' for Active; 'I' for Inactive)
REMARK    1  A    between atoms: C2_2  and  C3_3
REMARK    2  A    between atoms: C2_2  and  C4_4
REMARK    3  A    between atoms: C4_4  and  N5_5
REMARK    4  A    between atoms: N5_5  and  C6_6
REMARK    5  A    between atoms: C6_6  and  C8_8
REMARK    6  A    between atoms: C8_8  and  C9_9
REMARK    7  A    between atoms: C8_8  and  N24_24
REMARK    8  A    between atoms: C9_9  and  C11_11
REMARK    9  A    between atoms: C14_14  and  N15_15
REMARK   10  A    between atoms: C16_16  and  C18_18
REMARK   11  A    between atoms: C18_18  and  C19_19
REMARK   12  A    between atoms: C18_18  and  C20_20
REMARK   13  A    between atoms: C18_18  and  C21_21
REMARK   14  A    between atoms: C27_27  and  C28_28
REMARK   15  A    between atoms: C28_28  and  C29_29
REMARK                            x       y       z     vdW  Elec       q    Type
REMARK                         _______ _______ _______ _____ _____    ______ ____
ROOT
ATOM      1  C   UNL     1     -10.011  10.507  68.237  0.00  0.00    +0.220 C 
ENDROOT
BRANCH   1   2
ATOM      2  N   UNL     1      -9.821   9.840  69.528  0.00  0.00    -0.340 N 
ATOM      3  C   UNL     1      -8.623   9.393  69.849  0.00  0.00    +0.350 A 
ATOM      4  C   UNL     1      -8.405   8.760  71.058  0.00  0.00    +0.070 A 
ATOM      5  C   UNL     1      -9.466   8.598  71.936  0.00  0.00    +0.060 A 
ATOM      6  C   UNL     1     -10.711   9.081  71.563  0.00  0.00    +0.070 A 
ATOM      7  C   UNL     1     -10.851   9.708  70.340  0.00  0.00    +0.330 A 
BRANCH   5   8
ATOM      8  C   UNL     1      -9.270   7.912  73.265  0.00  0.00    +0.160 C 
BRANCH   8   9
ATOM      9  C   UNL     1      -9.577   6.444  73.121  0.00  0.00    -0.100 A 
ATOM     10  C   UNL     1     -10.834   5.965  73.444  0.00  0.00    +0.010 A 
ATOM     11  C   UNL     1     -11.115   4.619  73.312  0.00  0.00    +0.020 A 
ATOM     12  C   UNL     1     -10.140   3.749  72.858  0.00  0.00    +0.020 A 
ATOM     13  C   UNL     1      -8.884   4.228  72.535  0.00  0.00    +0.020 A 
ATOM     14  C   UNL     1      -8.604   5.576  72.662  0.00  0.00    +0.010 A 
ENDBRANCH   8   9
ENDBRANCH   5   8
ENDBRANCH   1   2
BRANCH   1  15
ATOM     15  C   UNL     1     -10.303   9.475  67.178  0.00  0.00    +0.200 C 
ATOM     16  S   UNL     1      -9.810   9.711  65.675  0.00  0.00    -0.310 S 
BRANCH  15  17
ATOM     17  N   UNL     1     -10.980   8.355  67.497  0.00  0.00    -0.630 N 
ATOM     18  H   UNL     1     -11.867   8.417  67.885  0.00  0.00    +0.400 HD
BRANCH  17  19
ATOM     19  C   UNL     1     -10.376   7.041  67.260  0.00  0.00    +0.350 C 
BRANCH  19  21
ATOM     20  C   UNL     1      -9.020   5.837  68.895  0.00  0.00    +0.070 C 
ATOM     21  C   UNL     1     -10.191   6.328  68.575  0.00  0.00    -0.160 C 
ATOM     22  C   UNL     1     -11.354   6.181  69.521  0.00  0.00    +0.090 C 
ENDBRANCH  19  21
ENDBRANCH  17  19
ENDBRANCH  15  17
ENDBRANCH   1  15
BRANCH   1  23
ATOM     23  C   UNL     1     -11.166  11.470  68.333  0.00  0.00    +0.430 C 
ATOM     24  O   UNL     1     -12.302  11.049  68.400  0.00  0.00    -0.420 OA
BRANCH  23  25
ATOM     25  C   UNL     1     -10.916  12.916  68.348  0.00  0.00    -0.190 A 
ATOM     26  C   UNL     1     -11.962  13.808  68.618  0.00  0.00    +0.070 A 
ATOM     27  C   UNL     1     -11.723  15.157  68.630  0.00  0.00    +0.020 A 
ATOM     28  C   UNL     1     -10.444  15.643  68.375  0.00  0.00    +0.210 A 
ATOM     29  C   UNL     1      -9.400  14.760  68.106  0.00  0.00    -0.020 A 
ATOM     30  C   UNL     1      -9.629  13.409  68.097  0.00  0.00    +0.130 A 
BRANCH  28  31
ATOM     31  N   UNL     1     -10.206  17.015  68.388  0.00  0.00    -0.670 N 
ATOM     32  H   UNL     1     -10.101  17.481  69.232  0.00  0.00    +0.420 HD
ATOM     33  C   UNL     1     -10.120  17.696  67.228  0.00  0.00    +0.530 C 
ATOM     34  O   UNL     1     -10.343  17.133  66.178  0.00  0.00    -0.510 OA
BRANCH  33  35
ATOM     35  C   UNL     1      -9.748  19.156  67.236  0.00  0.00    -0.080 C 
ATOM     36  C   UNL     1      -8.230  19.296  67.106  0.00  0.00    +0.060 C 
ATOM     37  C   UNL     1     -10.207  19.792  68.550  0.00  0.00    +0.060 C 
ATOM     38  C   UNL     1     -10.428  19.862  66.062  0.00  0.00    +0.070 C 
ENDBRANCH  33  35
ENDBRANCH  28  31
ENDBRANCH  23  25
ENDBRANCH   1  23
TORSDOF 11
ENDMDL
