REMARK  Name = ZINC000022730538
REMARK  10 active torsions:
REMARK  status: ('A' for Active; 'I' for Inactive)
REMARK    1  A    between atoms: C1_1  and  C2_2
REMARK    2  A    between atoms: C5_5  and  C6_6
REMARK    3  A    between atoms: C6_6  and  C8_8
REMARK    4  A    between atoms: C8_8  and  C9_9
REMARK    5  A    between atoms: C8_8  and  N19_19
REMARK    6  A    between atoms: C9_9  and  N11_11
REMARK    7  A    between atoms: N11_11  and  C12_12
REMARK    8  A    between atoms: C22_22  and  C23_23
REMARK    9  A    between atoms: C23_23  and  C24_24
REMARK   10  A    between atoms: C33_33  and  N34_34
REMARK                            x       y       z     vdW  Elec       q    Type
REMARK                         _______ _______ _______ _____ _____    ______ ____
ROOT
ATOM      1  C   UNL     1       0.185  -4.754  -2.244  0.00  0.00    +0.240 C 
ENDROOT
BRANCH   1   2
ATOM      2  N   UNL     1      -1.047  -4.763  -3.036  0.00  0.00    -0.340 N 
ATOM      3  C   UNL     1      -2.000  -5.622  -2.731  0.00  0.00    +0.380 A 
ATOM      4  C   UNL     1      -3.176  -5.660  -3.455  0.00  0.00    +0.070 A 
ATOM      5  C   UNL     1      -3.347  -4.779  -4.513  0.00  0.00    +0.060 A 
ATOM      6  C   UNL     1      -2.324  -3.890  -4.803  0.00  0.00    +0.070 A 
ATOM      7  C   UNL     1      -1.177  -3.908  -4.031  0.00  0.00    +0.320 A 
BRANCH   5   8
ATOM      8  C   UNL     1      -4.616  -4.788  -5.326  0.00  0.00    +0.160 C 
BRANCH   8   9
ATOM      9  C   UNL     1      -5.613  -3.839  -4.712  0.00  0.00    -0.100 A 
ATOM     10  C   UNL     1      -6.495  -4.292  -3.749  0.00  0.00    +0.020 A 
ATOM     11  C   UNL     1      -7.410  -3.422  -3.186  0.00  0.00    +0.020 A 
ATOM     12  C   UNL     1      -7.442  -2.099  -3.586  0.00  0.00    +0.020 A 
ATOM     13  C   UNL     1      -6.559  -1.646  -4.548  0.00  0.00    +0.010 A 
ATOM     14  C   UNL     1      -5.642  -2.515  -5.108  0.00  0.00    +0.010 A 
ENDBRANCH   8   9
ENDBRANCH   5   8
ENDBRANCH   1   2
BRANCH   1  15
ATOM     15  C   UNL     1      -0.145  -4.461  -0.803  0.00  0.00    +0.390 C 
ATOM     16  O   UNL     1      -0.299  -5.373  -0.019  0.00  0.00    -0.370 OA
BRANCH  15  21
ATOM     17  C   UNL     1      -0.675   0.979   0.977  0.00  0.00    +0.150 C 
ATOM     18  C   UNL     1      -0.536  -0.447   0.510  0.00  0.00    +0.030 A 
ATOM     19  C   UNL     1      -0.233  -0.711  -0.814  0.00  0.00    +0.050 A 
ATOM     20  C   UNL     1      -0.104  -2.014  -1.249  0.00  0.00    +0.100 A 
ATOM     21  C   UNL     1      -0.281  -3.068  -0.348  0.00  0.00    -0.190 A 
ATOM     22  C   UNL     1      -0.588  -2.793   0.989  0.00  0.00    +0.190 A 
ATOM     23  C   UNL     1      -0.708  -1.485   1.409  0.00  0.00    -0.040 A 
BRANCH  23  24
ATOM     24  N   UNL     1      -1.032  -1.191   2.823  0.00  0.00    +0.010 N 
ATOM     25  O   UNL     1      -1.821  -1.896   3.426  0.00  0.00    -0.140 OA
ATOM     26  O   UNL     1      -0.509  -0.244   3.383  0.00  0.00    -0.120 OA
ENDBRANCH  23  24
ENDBRANCH  15  21
ENDBRANCH   1  15
BRANCH   1  27
ATOM     27  C   UNL     1       0.855  -6.100  -2.342  0.00  0.00    +0.220 C 
ATOM     28  S   UNL     1       0.085  -7.329  -3.015  0.00  0.00    -0.330 S 
BRANCH  27  29
ATOM     29  N   UNL     1       2.104  -6.268  -1.863  0.00  0.00    -0.560 N 
ATOM     30  H   UNL     1       2.538  -5.548  -1.379  0.00  0.00    +0.420 HD
BRANCH  29  31
ATOM     31  C   UNL     1       2.773  -7.481  -2.063  0.00  0.00    +0.070 A 
ATOM     32  C   UNL     1       2.669  -8.139  -3.282  0.00  0.00    +0.100 A 
ATOM     33  C   UNL     1       3.330  -9.336  -3.477  0.00  0.00    +0.010 A 
ATOM     34  C   UNL     1       4.096  -9.879  -2.460  0.00  0.00    +0.130 A 
ATOM     35  C   UNL     1       4.201  -9.224  -1.244  0.00  0.00    +0.010 A 
ATOM     36  F   UNL     1       4.742 -11.050  -2.653  0.00  0.00    -0.120 F 
ATOM     37  C   UNL     1       3.547  -8.024  -1.046  0.00  0.00    +0.070 A 
ENDBRANCH  29  31
ENDBRANCH  27  29
ENDBRANCH   1  27
TORSDOF 9
