REMARK  Name = ZINC000022800406
REMARK  12 active torsions:
REMARK  status: ('A' for Active; 'I' for Inactive)
REMARK    1  A    between atoms: C1_1  and  C2_2
REMARK    2  A    between atoms: C5_5  and  C6_6
REMARK    3  A    between atoms: C6_6  and  C8_8
REMARK    4  A    between atoms: C8_8  and  C9_9
REMARK    5  A    between atoms: C8_8  and  N20_20
REMARK    6  A    between atoms: C9_9  and  N11_11
REMARK    7  A    between atoms: N11_11  and  C12_12
REMARK    8  A    between atoms: C23_23  and  C24_24
REMARK    9  A    between atoms: C24_24  and  C25_25
REMARK   10  A    between atoms: C24_24  and  C26_26
REMARK   11  A    between atoms: C24_24  and  C27_27
REMARK   12  A    between atoms: C31_31  and  N32_32
REMARK                            x       y       z     vdW  Elec       q    Type
REMARK                         _______ _______ _______ _____ _____    ______ ____
ROOT
ATOM      1  C   UNL     1       0.185  -4.754  -2.244  0.00  0.00    +0.240 C 
ENDROOT
BRANCH   1   2
ATOM      2  N   UNL     1      -1.048  -4.763  -3.035  0.00  0.00    -0.340 N 
ATOM      3  C   UNL     1      -2.000  -5.622  -2.731  0.00  0.00    +0.380 A 
ATOM      4  C   UNL     1      -3.177  -5.660  -3.454  0.00  0.00    +0.070 A 
ATOM      5  C   UNL     1      -3.348  -4.779  -4.512  0.00  0.00    +0.070 A 
ATOM      6  C   UNL     1      -2.325  -3.890  -4.802  0.00  0.00    +0.060 A 
ATOM      7  C   UNL     1      -1.178  -3.908  -4.031  0.00  0.00    +0.320 A 
BRANCH   5   8
ATOM      8  C   UNL     1      -4.617  -4.788  -5.325  0.00  0.00    -0.050 C 
ATOM      9  C   UNL     1      -4.799  -6.163  -5.971  0.00  0.00    +0.070 C 
ATOM     10  C   UNL     1      -4.529  -3.720  -6.417  0.00  0.00    +0.060 C 
ATOM     11  C   UNL     1      -5.809  -4.490  -4.414  0.00  0.00    +0.060 C 
ENDBRANCH   5   8
ENDBRANCH   1   2
BRANCH   1  12
ATOM     12  C   UNL     1      -0.145  -4.461  -0.803  0.00  0.00    +0.390 C 
ATOM     13  O   UNL     1      -0.299  -5.373  -0.019  0.00  0.00    -0.370 OA
BRANCH  12  18
ATOM     14  C   UNL     1      -0.675   0.980   0.976  0.00  0.00    +0.150 C 
ATOM     15  C   UNL     1      -0.536  -0.447   0.510  0.00  0.00    +0.030 A 
ATOM     16  C   UNL     1      -0.233  -0.711  -0.814  0.00  0.00    +0.050 A 
ATOM     17  C   UNL     1      -0.104  -2.014  -1.249  0.00  0.00    +0.100 A 
ATOM     18  C   UNL     1      -0.281  -3.068  -0.348  0.00  0.00    -0.190 A 
ATOM     19  C   UNL     1      -0.587  -2.793   0.989  0.00  0.00    +0.190 A 
ATOM     20  C   UNL     1      -0.707  -1.485   1.409  0.00  0.00    -0.040 A 
BRANCH  20  21
ATOM     21  N   UNL     1      -1.031  -1.191   2.823  0.00  0.00    +0.010 N 
ATOM     22  O   UNL     1      -1.820  -1.896   3.426  0.00  0.00    -0.140 OA
ATOM     23  O   UNL     1      -0.509  -0.244   3.383  0.00  0.00    -0.120 OA
ENDBRANCH  20  21
ENDBRANCH  12  18
ENDBRANCH   1  12
BRANCH   1  24
ATOM     24  C   UNL     1       0.855  -6.100  -2.342  0.00  0.00    +0.220 C 
ATOM     25  S   UNL     1       0.085  -7.329  -3.015  0.00  0.00    -0.320 S 
BRANCH  24  26
ATOM     26  N   UNL     1       2.104  -6.268  -1.863  0.00  0.00    -0.560 N 
ATOM     27  H   UNL     1       2.538  -5.548  -1.379  0.00  0.00    +0.420 HD
BRANCH  26  28
ATOM     28  C   UNL     1       2.773  -7.481  -2.064  0.00  0.00    +0.090 A 
ATOM     29  C   UNL     1       2.669  -8.139  -3.282  0.00  0.00    +0.110 A 
ATOM     30  C   UNL     1       3.330  -9.336  -3.478  0.00  0.00    +0.030 A 
ATOM     31  C   UNL     1       4.097  -9.879  -2.462  0.00  0.00    +0.140 A 
ATOM     32  C   UNL     1       4.202  -9.224  -1.245  0.00  0.00    -0.070 A 
ATOM     33 CL   UNL     1       5.165  -9.908   0.028  0.00  0.00    -0.020 Cl
ATOM     34  F   UNL     1       4.743 -11.050  -2.657  0.00  0.00    -0.110 F 
ATOM     35  C   UNL     1       3.546  -8.024  -1.046  0.00  0.00    +0.080 A 
ENDBRANCH  26  28
ENDBRANCH  24  26
ENDBRANCH   1  24
TORSDOF 8
