@<TRIPOS>MOLECULE
ZINC000015247650
51    54    1     0     0
SMALL
USER_CHARGES
@<TRIPOS>ATOM
1      O1     -0.5528    0.2479    0.6100 O.2      1 ZINC000015247650   -0.3800
2      C2     -0.4002    1.4241    0.3584 C.2      1 ZINC000015247650    0.3900
3      C3      0.9342    2.0341    0.4737 C.ar     1 ZINC000015247650   -0.1700
4      C4      1.1131    3.3916    0.1899 C.ar     1 ZINC000015247650   -0.0800
5      C5      2.3663    3.9566    0.3000 C.ar     1 ZINC000015247650   -0.1100
6      C6      3.4460    3.1840    0.6897 C.ar     1 ZINC000015247650   -0.0600
7      C7      3.2776    1.8382    0.9722 C.ar     1 ZINC000015247650   -0.0400
8      Cl8     4.6396    0.8788    1.4603 Cl       1 ZINC000015247650   -0.0300
9      C9      2.0285    1.2603    0.8731 C.ar     1 ZINC000015247650   -0.0400
10     C10    -1.5756    2.2600   -0.0783 C.3      1 ZINC000015247650    0.0600
11     C11    -2.6194    1.3710   -0.7038 C.2      1 ZINC000015247650    0.2200
12     S12    -4.0027    1.1070    0.0536 S.2      1 ZINC000015247650   -0.3400
13     N13    -2.3870    0.7985   -1.9016 N.am     1 ZINC000015247650   -0.5600
14     C14    -3.3164   -0.0964   -2.4410 C.ar     1 ZINC000015247650    0.0900
15     C15    -4.6699    0.2143   -2.4281 C.ar     1 ZINC000015247650   -0.0600
16     C16    -5.5858   -0.6714   -2.9620 C.ar     1 ZINC000015247650   -0.1000
17     C17    -5.1566   -1.8664   -3.5087 C.ar     1 ZINC000015247650   -0.0600
18     C18    -3.8086   -2.1797   -3.5229 C.ar     1 ZINC000015247650   -0.0900
19     Br19   -3.2267   -3.8159   -4.2712 Br       1 ZINC000015247650   -0.0200
20     C20    -2.8871   -1.2951   -2.9959 C.ar     1 ZINC000015247650   -0.0800
21     N21    -2.1486    2.9423    1.0847 N.ar     1 ZINC000015247650   -0.3300
22     C22    -2.6068    2.2232    2.0906 C.ar     1 ZINC000015247650    0.1700
23     C23    -3.1553    2.8360    3.2000 C.ar     1 ZINC000015247650   -0.1300
24     C24    -3.2211    4.2239    3.2484 C.ar     1 ZINC000015247650    0.0600
25     C25    -3.8332    4.8760    4.4569 C.3      1 ZINC000015247650   -0.1100
26     C26    -3.4386    6.3508    4.5254 C.3      1 ZINC000015247650   -0.1300
27     C27    -3.7353    6.9970    3.1672 C.3      1 ZINC000015247650   -0.1300
28     C28    -2.7450    6.4475    2.1416 C.3      1 ZINC000015247650   -0.0900
29     C29    -2.7275    4.9434    2.1808 C.ar     1 ZINC000015247650   -0.0800
30     C30    -2.1883    4.2585    1.1017 C.ar     1 ZINC000015247650    0.1200
31     H31     0.2717    3.9963   -0.1151 H        1 ZINC000015247650    0.1300
32     H32     2.5055    5.0050    0.0810 H        1 ZINC000015247650    0.1500
33     H33     4.4250    3.6323    0.7736 H        1 ZINC000015247650    0.1500
34     H34     1.8982    0.2112    1.0939 H        1 ZINC000015247650    0.1500
35     H35    -1.2446    2.9999   -0.8069 H        1 ZINC000015247650    0.1800
36     H36    -1.5750    1.0073   -2.3895 H        1 ZINC000015247650    0.4200
37     H37    -5.0062    1.1473   -2.0007 H        1 ZINC000015247650    0.1500
38     H38    -6.6384   -0.4300   -2.9521 H        1 ZINC000015247650    0.1500
39     H39    -5.8748   -2.5572   -3.9251 H        1 ZINC000015247650    0.1500
40     H40    -1.8352   -1.5396   -3.0074 H        1 ZINC000015247650    0.1400
41     H41    -2.5530    1.1455    2.0463 H        1 ZINC000015247650    0.2000
42     H42    -3.5297    2.2431    4.0214 H        1 ZINC000015247650    0.1900
43     H43    -4.9186    4.7956    4.3988 H        1 ZINC000015247650    0.1100
44     H44    -3.4848    4.3676    5.3560 H        1 ZINC000015247650    0.1100
45     H45    -4.0181    6.8493    5.3026 H        1 ZINC000015247650    0.0900
46     H46    -2.3747    6.4355    4.7467 H        1 ZINC000015247650    0.0800
47     H47    -4.7527    6.7540    2.8606 H        1 ZINC000015247650    0.0800
48     H48    -3.6213    8.0783    3.2435 H        1 ZINC000015247650    0.0900
49     H49    -3.0373    6.7786    1.1451 H        1 ZINC000015247650    0.1000
50     H50    -1.7474    6.8254    2.3654 H        1 ZINC000015247650    0.1000
51     H51    -1.7988    4.8132    0.2608 H        1 ZINC000015247650    0.2000
@<TRIPOS>BOND
1     1     2     2
2     2     3     1
3     2     10    1
4     3     9     ar
5     3     4     ar
6     4     5     ar
7     4     31    1
8     5     6     ar
9     5     32    1
10    6     7     ar
11    6     33    1
12    7     8     1
13    7     9     ar
14    9     34    1
15    10    11    1
16    10    21    1
17    10    35    1
18    11    12    2
19    11    13    am
20    13    14    1
21    13    36    1
22    14    20    ar
23    14    15    ar
24    15    16    ar
25    15    37    1
26    16    17    ar
27    16    38    1
28    17    18    ar
29    17    39    1
30    18    19    1
31    18    20    ar
32    20    40    1
33    21    30    ar
34    21    22    ar
35    22    23    ar
36    22    41    1
37    23    24    ar
38    23    42    1
39    24    29    ar
40    24    25    1
41    25    26    1
42    25    43    1
43    25    44    1
44    26    27    1
45    26    45    1
46    26    46    1
47    27    28    1
48    27    47    1
49    27    48    1
50    28    29    1
51    28    49    1
52    28    50    1
53    29    30    ar
54    30    51    1
@<TRIPOS>SUBSTRUCTURE
1   ZINC000015247650 1     RESIDUE    1   A     ZIN   1
