MODEL 1
REMARK VINA RESULT:      -7.5      0.000      0.000
REMARK  Name = ZINC000022734839
REMARK  13 active torsions:
REMARK  status: ('A' for Active; 'I' for Inactive)
REMARK    1  A    between atoms: C1_1  and  C2_2
REMARK    2  A    between atoms: C2_2  and  C3_3
REMARK    3  A    between atoms: C3_3  and  C4_4
REMARK    4  A    between atoms: C3_3  and  C6_6
REMARK    5  A    between atoms: C4_4  and  C5_5
REMARK    6  A    between atoms: N9_9  and  C10_10
REMARK    7  A    between atoms: C10_10  and  C11_11
REMARK    8  A    between atoms: C10_10  and  C21_21
REMARK    9  A    between atoms: C11_11  and  C13_13
REMARK   10  A    between atoms: C21_21  and  N23_23
REMARK   11  A    between atoms: N23_23  and  C24_24
REMARK   12  A    between atoms: C24_24  and  C25_25
REMARK   13  A    between atoms: C25_25  and  C26_26
REMARK                            x       y       z     vdW  Elec       q    Type
REMARK                         _______ _______ _______ _____ _____    ______ ____
ROOT
ATOM      1  C   UNL     1     -10.157  12.320  67.708  0.00  0.00    +0.240 C 
ENDROOT
BRANCH   1   5
ATOM      2  C   UNL     1     -12.382  13.719  70.983  0.00  0.00    +0.070 A 
ATOM      3  C   UNL     1     -11.694  14.600  70.164  0.00  0.00    +0.070 A 
ATOM      4  C   UNL     1     -10.971  14.104  69.095  0.00  0.00    +0.320 A 
ATOM      5  N   UNL     1     -10.933  12.808  68.851  0.00  0.00    -0.330 N 
ATOM      6  C   UNL     1     -11.575  11.940  69.608  0.00  0.00    +0.380 A 
ATOM      7  C   UNL     1     -12.313  12.363  70.698  0.00  0.00    +0.060 A 
BRANCH   2   8
ATOM      8  C   UNL     1     -13.180  14.219  72.157  0.00  0.00    +0.030 C 
BRANCH   8  10
ATOM      9  C   UNL     1     -12.390  16.002  73.720  0.00  0.00    +0.020 C 
ATOM     10  C   UNL     1     -12.953  15.723  72.325  0.00  0.00    +0.020 C 
ENDBRANCH   8  10
BRANCH   8  11
ATOM     11  C   UNL     1     -14.667  13.953  71.914  0.00  0.00    +0.040 C 
ATOM     12  C   UNL     1     -15.297  15.168  71.228  0.00  0.00    +0.020 C 
ENDBRANCH   8  11
ENDBRANCH   2   8
ENDBRANCH   1   5
BRANCH   1  13
ATOM     13  C   UNL     1      -9.101  13.334  67.348  0.00  0.00    +0.230 C 
ATOM     14  S   UNL     1      -7.797  13.487  68.260  0.00  0.00    -0.370 S 
BRANCH  13  15
ATOM     15  N   UNL     1      -9.257  14.110  66.258  0.00  0.00    -0.610 N 
ATOM     16  H   UNL     1      -9.568  13.722  65.425  0.00  0.00    +0.410 HD
BRANCH  15  17
ATOM     17  C   UNL     1      -8.955  15.543  66.329  0.00  0.00    +0.320 C 
BRANCH  17  18
ATOM     18  C   UNL     1     -10.210  16.346  65.984  0.00  0.00    +0.070 C 
BRANCH  18  19
ATOM     19  C   UNL     1     -10.194  17.651  66.739  0.00  0.00    -0.100 A 
ATOM     20  C   UNL     1     -10.032  17.652  68.111  0.00  0.00    +0.010 A 
ATOM     21  C   UNL     1     -10.017  18.849  68.804  0.00  0.00    +0.010 A 
ATOM     22  C   UNL     1     -10.165  20.043  68.123  0.00  0.00    +0.020 A 
ATOM     23  C   UNL     1     -10.327  20.041  66.751  0.00  0.00    +0.010 A 
ATOM     24  C   UNL     1     -10.337  18.845  66.058  0.00  0.00    +0.010 A 
ENDBRANCH  18  19
ENDBRANCH  17  18
ENDBRANCH  15  17
ENDBRANCH  13  15
ENDBRANCH   1  13
BRANCH   1  25
ATOM     25  C   UNL     1     -11.074  12.110  66.531  0.00  0.00    +0.380 C 
ATOM     26  O   UNL     1     -12.231  12.469  66.592  0.00  0.00    -0.360 OA
BRANCH  25  27
ATOM     27  C   UNL     1     -10.567  11.469  65.309  0.00  0.00    -0.180 A 
ATOM     28  C   UNL     1      -9.789  10.309  65.394  0.00  0.00    +0.080 A 
ATOM     29  C   UNL     1      -9.317   9.714  64.244  0.00  0.00    +0.050 A 
ATOM     30  C   UNL     1      -9.610  10.262  63.005  0.00  0.00    +0.020 A 
ATOM     31  C   UNL     1     -10.379  11.410  62.911  0.00  0.00    +0.050 A 
ATOM     32 CL   UNL     1      -9.010   9.504  61.563  0.00  0.00    -0.020 Cl
ATOM     33  C   UNL     1     -10.864  12.014  64.053  0.00  0.00    +0.040 A 
ATOM     34 CL   UNL     1     -11.829  13.453  63.934  0.00  0.00    +0.000 Cl
ENDBRANCH  25  27
ENDBRANCH   1  25
TORSDOF 11
ENDMDL
