REMARK  Name = ZINC000524439106
REMARK  8 active torsions:
REMARK  status: ('A' for Active; 'I' for Inactive)
REMARK    1  A    between atoms: C2_2  and  C3_3
REMARK    2  A    between atoms: C6_6  and  C7_7
REMARK    3  A    between atoms: C7_7  and  N8_8
REMARK    4  A    between atoms: N16_16  and  C17_17
REMARK    5  A    between atoms: C20_20  and  O21_21
REMARK    6  A    between atoms: O21_21  and  C22_22
REMARK    7  A    between atoms: C22_22  and  C23_23
REMARK    8  A    between atoms: C27_27  and  C28_28
REMARK                            x       y       z     vdW  Elec       q    Type
REMARK                         _______ _______ _______ _____ _____    ______ ____
ROOT
ATOM      1  N   UNL     1       0.323   7.110   1.873  0.00  0.00    -0.360 N 
ATOM      2  C   UNL     1       0.446   8.415   2.519  0.00  0.00    +0.260 C 
ATOM      3  C   UNL     1       0.914   8.224   3.945  0.00  0.00    +0.060 C 
ATOM      4  C   UNL     1      -0.307   8.158   4.880  0.00  0.00    +0.320 C 
ATOM      5  N   UNL     1      -1.406   7.385   4.266  0.00  0.00    -0.630 N 
ATOM      6  C   UNL     1      -1.174   6.159   3.531  0.00  0.00    +0.320 C 
ATOM      7  C   UNL     1      -2.669   7.838   4.393  0.00  0.00    +0.700 C 
ATOM      8  N   UNL     1      -3.677   7.211   3.755  0.00  0.00    -0.680 N 
ATOM      9  H   UNL     1      -3.506   6.391   3.266  0.00  0.00    +0.400 HD
ATOM     10  O   UNL     1      -2.899   8.812   5.084  0.00  0.00    -0.540 OA
ATOM     11  C   UNL     1      -0.931   6.482   2.039  0.00  0.00    +0.220 C 
ATOM     12  H   UNL     1       1.036   6.501   2.248  0.00  0.00    +0.420 HD
ENDROOT
BRANCH   8  13
ATOM     13  C   UNL     1      -4.972   7.745   3.796  0.00  0.00    +0.120 A 
ATOM     14  C   UNL     1      -5.155   9.120   3.837  0.00  0.00    +0.070 A 
ATOM     15  C   UNL     1      -6.432   9.646   3.878  0.00  0.00    -0.040 A 
ATOM     16  C   UNL     1      -7.531   8.801   3.878  0.00  0.00    +0.140 A 
ATOM     17  C   UNL     1      -7.349   7.425   3.837  0.00  0.00    -0.050 A 
ATOM     18 CL   UNL     1      -8.725   6.367   3.837  0.00  0.00    -0.040 Cl
ATOM     19  C   UNL     1      -6.072   6.898   3.790  0.00  0.00    +0.050 A 
BRANCH  16  20
ATOM     20  O   UNL     1      -8.787   9.319   3.919  0.00  0.00    -0.290 OA
BRANCH  20  21
ATOM     21  C   UNL     1      -8.901  10.743   3.959  0.00  0.00    +0.260 C 
BRANCH  21  22
ATOM     22  C   UNL     1     -10.357  11.130   4.000  0.00  0.00    -0.100 A 
ATOM     23  C   UNL     1     -11.050  11.335   2.821  0.00  0.00    +0.070 A 
ATOM     24  C   UNL     1     -12.387  11.690   2.849  0.00  0.00    +0.020 A 
ATOM     25  C   UNL     1     -13.037  11.843   4.056  0.00  0.00    +0.080 A 
ATOM     26  C   UNL     1     -12.344  11.639   5.250  0.00  0.00    -0.030 A 
ATOM     27  C   UNL     1     -10.996  11.275   5.214  0.00  0.00    +0.090 A 
BRANCH  26  28
ATOM     28  C   UNL     1     -13.013  11.796   6.507  0.00  0.00    +0.250 C 
ATOM     29  N   UNL     1     -13.544  11.920   7.503  0.00  0.00    -0.400 NA
ENDBRANCH  26  28
ENDBRANCH  21  22
ENDBRANCH  20  21
ENDBRANCH  16  20
ENDBRANCH   8  13
BRANCH   1  30
ATOM     30  C   UNL     1       0.571   7.280   0.435  0.00  0.00    +0.310 C 
BRANCH  30  34
ATOM     31  C   UNL     1       0.753   3.442  -1.442  0.00  0.00    +0.020 A 
ATOM     32  C   UNL     1      -0.467   4.112  -1.334  0.00  0.00    +0.080 A 
ATOM     33  C   UNL     1      -0.518   5.350  -0.727  0.00  0.00    +0.040 A 
ATOM     34  C   UNL     1       0.635   5.927  -0.226  0.00  0.00    -0.140 A 
ATOM     35  C   UNL     1       1.847   5.268  -0.330  0.00  0.00    +0.050 A 
ATOM     36  C   UNL     1       1.912   4.027  -0.929  0.00  0.00    +0.080 A 
BRANCH  31  38
ATOM     37  N   UNL     1       0.863   1.137  -2.570  0.00  0.00    -0.370 NA
ATOM     38  C   UNL     1       0.814   2.157  -2.071  0.00  0.00    +0.220 C 
ENDBRANCH  31  38
ENDBRANCH  30  34
ENDBRANCH   1  30
TORSDOF 8
