@<TRIPOS>MOLECULE
ZINC000022731086
58    61    1     0     0
SMALL
USER_CHARGES
@<TRIPOS>ATOM
1      C1      2.7197   -2.3197    4.4032 C.3      1 ZINC000022731086   -0.1600
2      C2      1.9606   -3.0518    3.2948 C.3      1 ZINC000022731086    0.0500
3      O3      2.8768   -3.4504    2.2731 O.3      1 ZINC000022731086   -0.3000
4      C4      2.3616   -4.1165    1.2095 C.ar     1 ZINC000022731086    0.1900
5      C5      0.9965   -4.3759    1.1493 C.ar     1 ZINC000022731086   -0.2200
6      C6      0.4707   -5.0488    0.0765 C.ar     1 ZINC000022731086    0.0100
7      C7      1.3107   -5.4746   -0.9599 C.ar     1 ZINC000022731086   -0.2200
8      C8      0.7529   -6.1952   -2.1115 C.2      1 ZINC000022731086    0.4300
9      O9     -0.4373   -6.4226   -2.1661 O.2      1 ZINC000022731086   -0.4100
10     C10     1.6592   -6.6522   -3.2254 C.3      1 ZINC000022731086    0.0600
11     C11     2.2699   -7.9814   -2.8628 C.2      1 ZINC000022731086    0.2000
12     S12     1.6285   -8.8635   -1.6935 S.2      1 ZINC000022731086   -0.2700
13     N13     3.3566   -8.4265   -3.5240 N.am     1 ZINC000022731086   -0.5800
14     C14     3.8657   -9.7020   -3.2550 C.ar     1 ZINC000022731086    0.1000
15     C15     4.0492  -10.1150   -1.9424 C.ar     1 ZINC000022731086   -0.0400
16     C16     4.5514  -11.3748   -1.6794 C.ar     1 ZINC000022731086   -0.0900
17     C17     4.8720  -12.2252   -2.7227 C.ar     1 ZINC000022731086    0.0000
18     Cl18    5.5033  -13.8073   -2.3879 Cl       1 ZINC000022731086   -0.0300
19     C19     4.6899  -11.8171   -4.0326 C.ar     1 ZINC000022731086   -0.1000
20     C20     4.1830  -10.5602   -4.3016 C.ar     1 ZINC000022731086   -0.0200
21     Cl21    3.9547  -10.0485   -5.9447 Cl       1 ZINC000022731086   -0.0500
22     N22     0.8832   -6.7920   -4.4601 N.ar     1 ZINC000022731086   -0.3300
23     C23    -0.1314   -7.6336   -4.4899 C.ar     1 ZINC000022731086    0.1400
24     C24    -0.8810   -7.7904   -5.6392 C.ar     1 ZINC000022731086   -0.1200
25     C25    -0.5559   -7.0502   -6.7703 C.ar     1 ZINC000022731086    0.0500
26     C26    -1.3728   -7.2417   -8.0178 C.3      1 ZINC000022731086   -0.1100
27     C27    -1.1556   -6.0766   -8.9826 C.3      1 ZINC000022731086   -0.1300
28     C28     0.3526   -5.8744   -9.1689 C.3      1 ZINC000022731086   -0.1300
29     C29     0.9332   -5.3249   -7.8667 C.3      1 ZINC000022731086   -0.0900
30     C30     0.5081   -6.1760   -6.7009 C.ar     1 ZINC000022731086   -0.0700
31     C31     1.2130   -6.0699   -5.5110 C.ar     1 ZINC000022731086    0.1100
32     C32     2.6844   -5.2104   -0.8946 C.ar     1 ZINC000022731086   -0.0400
33     C33     3.1994   -4.5326    0.1803 C.ar     1 ZINC000022731086   -0.1600
34     H34     3.4718   -2.9842    4.8286 H        1 ZINC000022731086    0.0700
35     H35     3.2073   -1.4376    3.9881 H        1 ZINC000022731086    0.0700
36     H36     2.0209   -2.0156    5.1825 H        1 ZINC000022731086    0.0900
37     H37     1.4730   -3.9339    3.7098 H        1 ZINC000022731086    0.0700
38     H38     1.2086   -2.3873    2.8693 H        1 ZINC000022731086    0.0700
39     H39     0.3496   -4.0471    1.9492 H        1 ZINC000022731086    0.1400
40     H40    -0.5894   -5.2503    0.0311 H        1 ZINC000022731086    0.1400
41     H41     2.4503   -5.9175   -3.3747 H        1 ZINC000022731086    0.1700
42     H42     3.7860   -7.8628   -4.1864 H        1 ZINC000022731086    0.4100
43     H43     3.7999   -9.4516   -1.1274 H        1 ZINC000022731086    0.1600
44     H44     4.6942  -11.6962   -0.6583 H        1 ZINC000022731086    0.1600
45     H45     4.9410  -12.4829   -4.8451 H        1 ZINC000022731086    0.1600
46     H46    -0.3783   -8.2058   -3.6078 H        1 ZINC000022731086    0.2100
47     H47    -1.7109   -8.4812   -5.6592 H        1 ZINC000022731086    0.1900
48     H48    -1.0767   -8.1716   -8.5033 H        1 ZINC000022731086    0.1100
49     H49    -2.4285   -7.2976   -7.7523 H        1 ZINC000022731086    0.1100
50     H50    -1.6158   -6.3062   -9.9437 H        1 ZINC000022731086    0.0900
51     H51    -1.5981   -5.1706   -8.5685 H        1 ZINC000022731086    0.0800
52     H52     0.8234   -6.8286   -9.4058 H        1 ZINC000022731086    0.0700
53     H53     0.5299   -5.1648   -9.9770 H        1 ZINC000022731086    0.0900
54     H54     2.0213   -5.3196   -7.9311 H        1 ZINC000022731086    0.1000
55     H55     0.5791   -4.3050   -7.7164 H        1 ZINC000022731086    0.1100
56     H56     2.0478   -5.3877   -5.4465 H        1 ZINC000022731086    0.2100
57     H57     3.3365   -5.5370   -1.6912 H        1 ZINC000022731086    0.1200
58     H58     4.2586   -4.3280    0.2314 H        1 ZINC000022731086    0.1500
@<TRIPOS>BOND
1     1     2     1
2     1     34    1
3     1     35    1
4     1     36    1
5     2     3     1
6     2     37    1
7     2     38    1
8     3     4     1
9     4     33    ar
10    4     5     ar
11    5     6     ar
12    5     39    1
13    6     7     ar
14    6     40    1
15    7     8     1
16    7     32    ar
17    8     9     2
18    8     10    1
19    10    11    1
20    10    22    1
21    10    41    1
22    11    12    2
23    11    13    am
24    13    14    1
25    13    42    1
26    14    20    ar
27    14    15    ar
28    15    16    ar
29    15    43    1
30    16    17    ar
31    16    44    1
32    17    18    1
33    17    19    ar
34    19    20    ar
35    19    45    1
36    20    21    1
37    22    31    ar
38    22    23    ar
39    23    24    ar
40    23    46    1
41    24    25    ar
42    24    47    1
43    25    30    ar
44    25    26    1
45    26    27    1
46    26    48    1
47    26    49    1
48    27    28    1
49    27    50    1
50    27    51    1
51    28    29    1
52    28    52    1
53    28    53    1
54    29    30    1
55    29    54    1
56    29    55    1
57    30    31    ar
58    31    56    1
59    32    33    ar
60    32    57    1
61    33    58    1
@<TRIPOS>SUBSTRUCTURE
1   ZINC000022731086 1     RESIDUE    1   A     ZIN   1
