MODEL 1
REMARK VINA RESULT:      -7.8      0.000      0.000
REMARK  Name = ZINC000514391473
REMARK  13 active torsions:
REMARK  status: ('A' for Active; 'I' for Inactive)
REMARK    1  A    between atoms: C2_2  and  C3_3
REMARK    2  A    between atoms: C3_3  and  N4_4
REMARK    3  A    between atoms: C5_5  and  C6_6
REMARK    4  A    between atoms: C6_6  and  C7_7
REMARK    5  A    between atoms: C7_7  and  N8_8
REMARK    6  A    between atoms: C17_17  and  S18_18
REMARK    7  A    between atoms: S18_18  and  C19_19
REMARK    8  A    between atoms: C19_19  and  C21_21
REMARK    9  A    between atoms: C19_19  and  C33_33
REMARK   10  A    between atoms: N23_23  and  C24_24
REMARK   11  A    between atoms: C26_26  and  C27_27
REMARK   12  A    between atoms: C30_30  and  O31_31
REMARK   13  A    between atoms: O31_31  and  C32_32
REMARK                            x       y       z     vdW  Elec       q    Type
REMARK                         _______ _______ _______ _____ _____    ______ ____
ROOT
ATOM      1  C   UNL     1      -9.828  16.059  67.649  0.00  0.00    +0.070 C 
ENDROOT
BRANCH   1   2
ATOM      2  C   UNL     1      -9.894  17.552  67.455  0.00  0.00    -0.100 A 
ATOM      3  C   UNL     1     -10.283  18.074  66.236  0.00  0.00    +0.040 A 
ATOM      4  C   UNL     1     -10.343  19.442  66.057  0.00  0.00    +0.000 A 
ATOM      5  C   UNL     1     -10.015  20.291  67.098  0.00  0.00    +0.020 A 
ATOM      6  C   UNL     1      -9.627  19.769  68.318  0.00  0.00    +0.010 A 
ATOM      7  C   UNL     1      -9.571  18.399  68.498  0.00  0.00    +0.060 A 
ENDBRANCH   1   2
BRANCH   1   8
ATOM      8  C   UNL     1     -10.863  15.637  68.661  0.00  0.00    +0.540 C 
ATOM      9  N   UNL     1     -10.495  14.925  69.743  0.00  0.00    -0.650 N 
ATOM     10  H   UNL     1      -9.577  14.627  69.840  0.00  0.00    +0.420 HD
ATOM     11  O   UNL     1     -12.026  15.940  68.500  0.00  0.00    -0.510 OA
BRANCH   9  12
ATOM     12  C   UNL     1     -11.439  14.614  70.731  0.00  0.00    +0.110 A 
ATOM     13  C   UNL     1     -11.603  15.452  71.824  0.00  0.00    +0.070 A 
ATOM     14  C   UNL     1     -12.536  15.143  72.797  0.00  0.00    -0.100 A 
ATOM     15  C   UNL     1     -13.307  14.002  72.684  0.00  0.00    +0.040 A 
ATOM     16  C   UNL     1     -13.149  13.162  71.596  0.00  0.00    -0.050 A 
ATOM     17  C   UNL     1     -12.712  16.055  73.985  0.00  0.00    +0.100 C 
ATOM     18  C   UNL     1     -12.220  13.466  70.614  0.00  0.00    +0.100 A 
BRANCH  18  19
ATOM     19  O   UNL     1     -12.065  12.642  69.545  0.00  0.00    -0.320 OA
ATOM     20  C   UNL     1     -12.038  11.237  69.806  0.00  0.00    +0.250 C 
ENDBRANCH  18  19
ENDBRANCH   9  12
ENDBRANCH   1   8
BRANCH   1  21
ATOM     21  S   UNL     1     -10.152  15.230  66.073  0.00  0.00    +0.100 S 
BRANCH  21  26
ATOM     22  N   UNL     1     -10.520  12.467  66.320  0.00  0.00    -0.450 N 
ATOM     23  C   UNL     1      -9.797  11.415  66.811  0.00  0.00    +0.150 A 
ATOM     24  N   UNL     1      -8.672  11.894  67.261  0.00  0.00    -0.260 NA
ATOM     25  N   UNL     1      -8.636  13.168  67.089  0.00  0.00    -0.270 NA
ATOM     26  C   UNL     1      -9.742  13.573  66.511  0.00  0.00    +0.170 A 
BRANCH  22  27
ATOM     27  C   UNL     1     -11.852  12.416  65.710  0.00  0.00    +0.350 C 
BRANCH  27  29
ATOM     28  C   UNL     1     -12.163  12.973  63.353  0.00  0.00    +0.040 C 
ATOM     29  C   UNL     1     -11.719  12.116  64.239  0.00  0.00    -0.050 C 
ENDBRANCH  27  29
ENDBRANCH  22  27
BRANCH  23  30
ATOM     30  C   UNL     1     -10.222   9.969  66.827  0.00  0.00    +0.170 C 
BRANCH  30  31
ATOM     31  C   UNL     1      -8.991   9.079  67.012  0.00  0.00    +0.260 C 
BRANCH  31  32
ATOM     32  N   UNL     1      -9.376   7.857  67.732  0.00  0.00    -0.380 N 
ATOM     33  C   UNL     1     -10.551   7.261  67.086  0.00  0.00    +0.250 C 
ATOM     34  C   UNL     1     -10.908   5.945  67.781  0.00  0.00    +0.050 C 
ATOM     35  C   UNL     1     -11.217   6.220  69.255  0.00  0.00    +0.040 C 
ATOM     36  C   UNL     1     -10.012   6.910  69.900  0.00  0.00    +0.060 C 
ATOM     37  C   UNL     1      -9.691   8.190  69.126  0.00  0.00    +0.240 C 
ATOM     38  H   UNL     1      -8.612   7.199  67.708  0.00  0.00    +0.430 HD
ENDBRANCH  31  32
ENDBRANCH  30  31
ENDBRANCH  23  30
ENDBRANCH  21  26
ENDBRANCH   1  21
TORSDOF 11
ENDMDL
