MODEL 1
REMARK VINA RESULT:      -7.1      0.000      0.000
REMARK  Name = ZINC000028781045
REMARK  13 active torsions:
REMARK  status: ('A' for Active; 'I' for Inactive)
REMARK    1  A    between atoms: C1_1  and  C2_2
REMARK    2  A    between atoms: C2_2  and  C3_3
REMARK    3  A    between atoms: C2_2  and  C4_4
REMARK    4  A    between atoms: C2_2  and  C5_5
REMARK    5  A    between atoms: N8_8  and  C9_9
REMARK    6  A    between atoms: C9_9  and  C10_10
REMARK    7  A    between atoms: C9_9  and  C21_21
REMARK    8  A    between atoms: C10_10  and  C12_12
REMARK    9  A    between atoms: C15_15  and  N16_16
REMARK   10  A    between atoms: C21_21  and  N23_23
REMARK   11  A    between atoms: N23_23  and  C24_24
REMARK   12  A    between atoms: C27_27  and  O28_28
REMARK   13  A    between atoms: O28_28  and  C29_29
REMARK                            x       y       z     vdW  Elec       q    Type
REMARK                         _______ _______ _______ _____ _____    ______ ____
ROOT
ATOM      1  C   UNL     1     -11.125  11.957  66.933  0.00  0.00    +0.240 C 
ENDROOT
BRANCH   1   5
ATOM      2  C   UNL     1      -9.744   8.002  66.672  0.00  0.00    +0.060 A 
ATOM      3  C   UNL     1      -9.450   8.923  65.678  0.00  0.00    +0.070 A 
ATOM      4  C   UNL     1      -9.922  10.216  65.798  0.00  0.00    +0.330 A 
ATOM      5  N   UNL     1     -10.643  10.576  66.842  0.00  0.00    -0.340 N 
ATOM      6  C   UNL     1     -10.941   9.728  67.806  0.00  0.00    +0.350 A 
ATOM      7  C   UNL     1     -10.509   8.416  67.751  0.00  0.00    +0.070 A 
BRANCH   2   9
ATOM      8  C   UNL     1      -8.347   6.275  67.777  0.00  0.00    +0.070 C 
ATOM      9  C   UNL     1      -9.249   6.581  66.579  0.00  0.00    -0.050 C 
ATOM     10  C   UNL     1     -10.443   5.624  66.583  0.00  0.00    +0.060 C 
ATOM     11  C   UNL     1      -8.455   6.402  65.284  0.00  0.00    +0.060 C 
ENDBRANCH   2   9
ENDBRANCH   1   5
BRANCH   1  12
ATOM     12  C   UNL     1     -10.759  12.701  65.674  0.00  0.00    +0.190 C 
ATOM     13  S   UNL     1     -11.716  12.627  64.395  0.00  0.00    -0.290 S 
BRANCH  12  14
ATOM     14  N   UNL     1      -9.626  13.428  65.627  0.00  0.00    -0.570 N 
ATOM     15  H   UNL     1      -8.775  12.992  65.462  0.00  0.00    +0.410 HD
BRANCH  14  16
ATOM     16  C   UNL     1      -9.676  14.816  65.812  0.00  0.00    +0.060 A 
ATOM     17  C   UNL     1      -8.649  15.465  66.483  0.00  0.00    +0.100 A 
ATOM     18  C   UNL     1      -8.700  16.832  66.666  0.00  0.00    +0.030 A 
ATOM     19  C   UNL     1      -9.776  17.558  66.178  0.00  0.00    +0.140 A 
ATOM     20  C   UNL     1     -10.804  16.911  65.507  0.00  0.00    -0.030 A 
ATOM     21  C   UNL     1     -10.751  15.543  65.319  0.00  0.00    +0.080 A 
BRANCH  19  22
ATOM     22  O   UNL     1      -9.825  18.906  66.357  0.00  0.00    -0.310 OA
BRANCH  22  23
ATOM     23  C   UNL     1     -10.616  19.387  67.445  0.00  0.00    +0.600 C 
ATOM     24  F   UNL     1     -10.114  20.620  67.876  0.00  0.00    -0.190 F 
ATOM     25  F   UNL     1     -10.568  18.470  68.500  0.00  0.00    -0.200 F 
ENDBRANCH  22  23
ENDBRANCH  19  22
ENDBRANCH  14  16
ENDBRANCH  12  14
ENDBRANCH   1  12
BRANCH   1  26
ATOM     26  C   UNL     1     -10.490  12.635  68.119  0.00  0.00    +0.420 C 
ATOM     27  O   UNL     1      -9.289  12.571  68.282  0.00  0.00    -0.390 OA
BRANCH  26  28
ATOM     28  C   UNL     1     -11.325  13.375  69.079  0.00  0.00    -0.120 A 
ATOM     29  C   UNL     1     -11.996  12.692  70.097  0.00  0.00    +0.060 A 
ATOM     30  C   UNL     1     -12.777  13.392  70.993  0.00  0.00    +0.110 A 
ATOM     31  C   UNL     1     -12.897  14.767  70.886  0.00  0.00    +0.000 A 
ATOM     32  C   UNL     1     -12.234  15.450  69.880  0.00  0.00    +0.110 A 
ATOM     33  C   UNL     1     -11.446  14.765  68.981  0.00  0.00    +0.130 A 
BRANCH  31  34
ATOM     34  N   UNL     1     -13.737  15.511  71.851  0.00  0.00    +0.010 N 
ATOM     35  O   UNL     1     -14.921  15.684  71.620  0.00  0.00    -0.130 OA
ATOM     36  O   UNL     1     -13.245  15.950  72.874  0.00  0.00    -0.140 OA
ENDBRANCH  31  34
ENDBRANCH  26  28
ENDBRANCH   1  26
TORSDOF 10
ENDMDL
