REMARK  Name = ZINC000022735258
REMARK  13 active torsions:
REMARK  status: ('A' for Active; 'I' for Inactive)
REMARK    1  A    between atoms: C1_1  and  C2_2
REMARK    2  A    between atoms: C2_2  and  C3_3
REMARK    3  A    between atoms: C3_3  and  C4_4
REMARK    4  A    between atoms: C3_3  and  C6_6
REMARK    5  A    between atoms: C4_4  and  C5_5
REMARK    6  A    between atoms: N9_9  and  C10_10
REMARK    7  A    between atoms: C10_10  and  C11_11
REMARK    8  A    between atoms: C10_10  and  C21_21
REMARK    9  A    between atoms: C11_11  and  C13_13
REMARK   10  A    between atoms: C21_21  and  N23_23
REMARK   11  A    between atoms: N23_23  and  C24_24
REMARK   12  A    between atoms: C24_24  and  C25_25
REMARK   13  A    between atoms: C25_25  and  C26_26
REMARK                            x       y       z     vdW  Elec       q    Type
REMARK                         _______ _______ _______ _____ _____    ______ ____
ROOT
ATOM      1  C   UNL     1      -1.359  -6.222   0.450  0.00  0.00    +0.240 C 
ENDROOT
BRANCH   1   5
ATOM      2  C   UNL     1      -1.414  -2.036   0.129  0.00  0.00    +0.070 A 
ATOM      3  C   UNL     1      -0.783  -2.813  -0.831  0.00  0.00    +0.070 A 
ATOM      4  C   UNL     1      -0.785  -4.189  -0.691  0.00  0.00    +0.330 A 
ATOM      5  N   UNL     1      -1.378  -4.761   0.338  0.00  0.00    -0.340 N 
ATOM      6  C   UNL     1      -1.988  -4.053   1.269  0.00  0.00    +0.380 A 
ATOM      7  C   UNL     1      -2.021  -2.674   1.200  0.00  0.00    +0.070 A 
BRANCH   2   8
ATOM      8  C   UNL     1      -1.433  -0.534   0.013  0.00  0.00    +0.040 C 
BRANCH   8  10
ATOM      9  C   UNL     1      -0.019   1.526   0.010  0.00  0.00    +0.020 C 
ATOM     10  C   UNL     1       0.002  -0.004   0.002  0.00  0.00    +0.020 C 
ENDBRANCH   8  10
BRANCH   8  11
ATOM     11  C   UNL     1      -2.135  -0.131  -1.286  0.00  0.00    +0.040 C 
ATOM     12  C   UNL     1      -3.605  -0.552  -1.222  0.00  0.00    +0.020 C 
ENDBRANCH   8  11
ENDBRANCH   2   8
ENDBRANCH   1   5
BRANCH   1  13
ATOM     13  C   UNL     1      -2.773  -6.744   0.453  0.00  0.00    +0.230 C 
ATOM     14  S   UNL     1      -4.001  -5.726   0.344  0.00  0.00    -0.370 S 
BRANCH  13  15
ATOM     15  N   UNL     1      -3.002  -8.069   0.549  0.00  0.00    -0.620 N 
ATOM     16  H   UNL     1      -2.256  -8.686   0.616  0.00  0.00    +0.410 HD
BRANCH  15  17
ATOM     17  C   UNL     1      -4.376  -8.576   0.552  0.00  0.00    +0.320 C 
BRANCH  17  18
ATOM     18  C   UNL     1      -4.356 -10.102   0.669  0.00  0.00    +0.070 C 
BRANCH  18  19
ATOM     19  C   UNL     1      -5.769 -10.624   0.673  0.00  0.00    -0.100 A 
ATOM     20  C   UNL     1      -6.451 -10.767   1.867  0.00  0.00    +0.010 A 
ATOM     21  C   UNL     1      -7.747 -11.246   1.870  0.00  0.00    +0.010 A 
ATOM     22  C   UNL     1      -8.363 -11.581   0.679  0.00  0.00    +0.020 A 
ATOM     23  C   UNL     1      -7.682 -11.438  -0.516  0.00  0.00    +0.010 A 
ATOM     24  C   UNL     1      -6.387 -10.955  -0.519  0.00  0.00    +0.010 A 
ENDBRANCH  18  19
ENDBRANCH  17  18
ENDBRANCH  15  17
ENDBRANCH  13  15
ENDBRANCH   1  13
BRANCH   1  25
ATOM     25  C   UNL     1      -0.674  -6.618   1.733  0.00  0.00    +0.390 C 
ATOM     26  O   UNL     1      -1.331  -6.839   2.728  0.00  0.00    -0.380 OA
BRANCH  25  27
ATOM     27  C   UNL     1       0.791  -6.736   1.778  0.00  0.00    -0.170 A 
ATOM     28  C   UNL     1       1.553  -6.476   0.634  0.00  0.00    +0.070 A 
ATOM     29  C   UNL     1       2.926  -6.588   0.683  0.00  0.00    +0.060 A 
ATOM     30  C   UNL     1       3.552  -6.957   1.862  0.00  0.00    +0.010 A 
ATOM     31  C   UNL     1       2.804  -7.217   3.001  0.00  0.00    -0.040 A 
ATOM     32 CL   UNL     1       3.600  -7.679   4.473  0.00  0.00    -0.010 Cl
ATOM     33 CL   UNL     1       5.282  -7.096   1.914  0.00  0.00    -0.010 Cl
ATOM     34  C   UNL     1       1.430  -7.104   2.967  0.00  0.00    +0.140 A 
ENDBRANCH  25  27
ENDBRANCH   1  25
TORSDOF 11
