REMARK  Name = ZINC000015247565
REMARK  6 active torsions:
REMARK  status: ('A' for Active; 'I' for Inactive)
REMARK    1  A    between atoms: C2_2  and  C3_3
REMARK    2  A    between atoms: C2_2  and  C10_10
REMARK    3  A    between atoms: C10_10  and  C11_11
REMARK    4  A    between atoms: C10_10  and  N21_21
REMARK    5  A    between atoms: C11_11  and  N13_13
REMARK    6  A    between atoms: N13_13  and  C14_14
REMARK                            x       y       z     vdW  Elec       q    Type
REMARK                         _______ _______ _______ _____ _____    ______ ____
ROOT
ATOM      1  C   UNL     1      -1.576   2.260  -0.078  0.00  0.00    +0.240 C 
ENDROOT
BRANCH   1   2
ATOM      2  N   UNL     1      -2.149   2.942   1.085  0.00  0.00    -0.330 N 
ATOM      3  C   UNL     1      -2.607   2.223   2.091  0.00  0.00    +0.370 A 
ATOM      4  C   UNL     1      -3.155   2.836   3.200  0.00  0.00    +0.060 A 
ATOM      5  C   UNL     1      -3.221   4.224   3.248  0.00  0.00    +0.060 A 
ATOM      6  C   UNL     1      -3.833   4.876   4.457  0.00  0.00    +0.110 C 
ATOM      7  C   UNL     1      -3.439   6.351   4.525  0.00  0.00    +0.040 C 
ATOM      8  C   UNL     1      -3.735   6.997   3.167  0.00  0.00    +0.040 C 
ATOM      9  C   UNL     1      -2.745   6.448   2.142  0.00  0.00    +0.110 C 
ATOM     10  C   UNL     1      -2.728   4.944   2.181  0.00  0.00    -0.080 A 
ATOM     11  C   UNL     1      -2.188   4.259   1.102  0.00  0.00    +0.310 A 
ENDBRANCH   1   2
BRANCH   1  13
ATOM     12  O   UNL     1      -0.553   0.248   0.610  0.00  0.00    -0.380 OA
ATOM     13  C   UNL     1      -0.400   1.424   0.358  0.00  0.00    +0.390 C 
BRANCH  13  14
ATOM     14  C   UNL     1       0.933   2.034   0.474  0.00  0.00    -0.180 A 
ATOM     15  C   UNL     1       1.112   3.392   0.190  0.00  0.00    +0.060 A 
ATOM     16  C   UNL     1       2.365   3.957   0.300  0.00  0.00    +0.040 A 
ATOM     17  C   UNL     1       3.445   3.182   0.691  0.00  0.00    +0.010 A 
ATOM     18  C   UNL     1       3.276   1.837   0.974  0.00  0.00    +0.040 A 
ATOM     19 CL   UNL     1       5.019   3.902   0.828  0.00  0.00    -0.030 Cl
ATOM     20  C   UNL     1       2.028   1.260   0.873  0.00  0.00    +0.120 A 
ENDBRANCH  13  14
ENDBRANCH   1  13
BRANCH   1  21
ATOM     21  C   UNL     1      -2.619   1.371  -0.704  0.00  0.00    +0.220 C 
ATOM     22  S   UNL     1      -4.003   1.107   0.054  0.00  0.00    -0.340 S 
BRANCH  21  23
ATOM     23  N   UNL     1      -2.387   0.799  -1.902  0.00  0.00    -0.560 N 
ATOM     24  H   UNL     1      -1.575   1.007  -2.390  0.00  0.00    +0.420 HD
BRANCH  23  25
ATOM     25  C   UNL     1      -3.316  -0.096  -2.441  0.00  0.00    +0.090 A 
ATOM     26  C   UNL     1      -4.670   0.214  -2.428  0.00  0.00    +0.090 A 
ATOM     27  C   UNL     1      -5.586  -0.671  -2.962  0.00  0.00    +0.050 A 
ATOM     28  C   UNL     1      -5.157  -1.866  -3.509  0.00  0.00    +0.090 A 
ATOM     29  C   UNL     1      -3.809  -2.180  -3.523  0.00  0.00    -0.090 A 
ATOM     30 BR   UNL     1      -3.227  -3.816  -4.271  0.00  0.00    -0.020 Br
ATOM     31  C   UNL     1      -2.887  -1.295  -2.996  0.00  0.00    +0.060 A 
ENDBRANCH  23  25
ENDBRANCH  21  23
ENDBRANCH   1  21
TORSDOF 6
