@<TRIPOS>MOLECULE
ZINC000514391472
72    75    1     0     0
SMALL
USER_CHARGES
@<TRIPOS>ATOM
1      C1      0.0306    1.3143    0.0304 C.2      1 ZINC000514391472   -0.1700
2      C2      0.0413    0.0044    0.0188 C.2      1 ZINC000514391472   -0.1800
3      C3     -1.2575   -0.7598    0.0179 C.3      1 ZINC000514391472    0.1300
4      N4     -1.2818   -1.6803   -1.1216 N.pl3    1 ZINC000514391472   -0.4500
5      C5     -1.7461   -1.4222   -2.3818 C.2      1 ZINC000514391472    0.1600
6      C6     -2.3364   -0.1235   -2.8675 C.3      1 ZINC000514391472   -0.0500
7      C7     -1.2229    0.7666   -3.4233 C.3      1 ZINC000514391472   -0.0100
8      N8     -1.7984    2.0325   -3.8968 N.4      1 ZINC000514391472   -0.3800
9      H9     -2.5305    1.8394   -4.5637 H        1 ZINC000514391472    0.4300
10     C10    -0.7508    2.8339   -4.5409 C.3      1 ZINC000514391472   -0.0100
11     C11    -1.3611    4.1176   -5.1075 C.3      1 ZINC000514391472   -0.1500
12     C12    -1.9932    4.9220   -3.9679 C.3      1 ZINC000514391472   -0.1400
13     C13    -3.0320    4.0505   -3.2561 C.3      1 ZINC000514391472   -0.1400
14     C14    -2.3581    2.7701   -2.7578 C.3      1 ZINC000514391472   -0.0200
15     N15    -1.5830   -2.5070   -3.0849 N.2      1 ZINC000514391472   -0.2600
16     N16    -1.0515   -3.4263   -2.3610 N.2      1 ZINC000514391472   -0.2700
17     C17    -0.8402   -2.9720   -1.1475 C.2      1 ZINC000514391472    0.1700
18     S18    -0.1305   -3.8637    0.1963 S.3      1 ZINC000514391472    0.0900
19     C19     0.1695   -5.4574   -0.6076 C.3      1 ZINC000514391472   -0.0600
20     H20     0.7720   -5.3050   -1.5030 H        1 ZINC000514391472    0.1300
21     C21     0.9029   -6.3690    0.3423 C.2      1 ZINC000514391472    0.5400
22     O22     0.8068   -6.2013    1.5397 O.2      1 ZINC000514391472   -0.5000
23     N23     1.6658   -7.3705   -0.1388 N.am     1 ZINC000514391472   -0.6500
24     C24     2.4389   -8.1449    0.7364 C.ar     1 ZINC000514391472    0.1200
25     C25     2.8421   -7.6220    1.9560 C.ar     1 ZINC000514391472   -0.0900
26     C26     3.6047   -8.3879    2.8178 C.ar     1 ZINC000514391472   -0.1000
27     C27     4.0421   -7.8182    4.1427 C.3      1 ZINC000514391472   -0.1100
28     C28     3.9669   -9.6752    2.4676 C.ar     1 ZINC000514391472   -0.0900
29     C29     3.5689  -10.2032    1.2530 C.ar     1 ZINC000514391472   -0.1800
30     C30     2.7998   -9.4444    0.3863 C.ar     1 ZINC000514391472    0.1000
31     O31     2.4074   -9.9623   -0.8081 O.3      1 ZINC000514391472   -0.3200
32     C32     2.8244  -11.2964   -1.1052 C.3      1 ZINC000514391472    0.0300
33     C33    -1.1472   -6.0835   -0.9887 C.ar     1 ZINC000514391472   -0.1000
34     C34    -2.0855   -6.3673   -0.0140 C.ar     1 ZINC000514391472   -0.0900
35     C35    -3.2933   -6.9416   -0.3636 C.ar     1 ZINC000514391472   -0.1200
36     C36    -3.5630   -7.2318   -1.6879 C.ar     1 ZINC000514391472   -0.1000
37     C37    -2.6251   -6.9473   -2.6628 C.ar     1 ZINC000514391472   -0.1200
38     C38    -1.4190   -6.3690   -2.3137 C.ar     1 ZINC000514391472   -0.0700
39     H39     0.9615    1.8619    0.0310 H        1 ZINC000514391472    0.1100
40     H40    -0.9090    1.8466    0.0348 H        1 ZINC000514391472    0.1000
41     H41     0.9810   -0.5279    0.0099 H        1 ZINC000514391472    0.1300
42     H42    -1.3463   -1.3266    0.9447 H        1 ZINC000514391472    0.1200
43     H43    -2.0902   -0.0609   -0.0618 H        1 ZINC000514391472    0.1000
44     H44    -3.0651   -0.3266   -3.6523 H        1 ZINC000514391472    0.1200
45     H45    -2.8279    0.3849   -2.0380 H        1 ZINC000514391472    0.1000
46     H46    -0.4943    0.9697   -2.6386 H        1 ZINC000514391472    0.1300
47     H47    -0.7314    0.2582   -4.2528 H        1 ZINC000514391472    0.1400
48     H48     0.0139    3.0888   -3.8071 H        1 ZINC000514391472    0.1300
49     H49    -0.2997    2.2589   -5.3496 H        1 ZINC000514391472    0.1300
50     H50    -0.5814    4.7120   -5.5837 H        1 ZINC000514391472    0.1100
51     H51    -2.1258    3.8639   -5.8416 H        1 ZINC000514391472    0.0900
52     H52    -1.2202    5.2198   -3.2595 H        1 ZINC000514391472    0.0800
53     H53    -2.4787    5.8095   -4.3738 H        1 ZINC000514391472    0.1000
54     H54    -3.4465    4.5970   -2.4089 H        1 ZINC000514391472    0.1100
55     H55    -3.8313    3.7954   -3.9518 H        1 ZINC000514391472    0.0900
56     H56    -3.0941    2.1466   -2.2501 H        1 ZINC000514391472    0.1300
57     H57    -1.5594    3.0274   -2.0622 H        1 ZINC000514391472    0.1300
58     H58     1.6796   -7.5553   -1.0910 H        1 ZINC000514391472    0.4200
59     H59     2.5606   -6.6166    2.2322 H        1 ZINC000514391472    0.1500
60     H60     3.2906   -8.0415    4.9000 H        1 ZINC000514391472    0.0700
61     H61     4.9938   -8.2631    4.4331 H        1 ZINC000514391472    0.0700
62     H62     4.1580   -6.7381    4.0533 H        1 ZINC000514391472    0.0700
63     H63     4.5625  -10.2700    3.1442 H        1 ZINC000514391472    0.1300
64     H64     3.8539  -11.2091    0.9822 H        1 ZINC000514391472    0.1400
65     H65     3.9134  -11.3444   -1.1087 H        1 ZINC000514391472    0.0600
66     H66     2.4332  -11.9764   -0.3484 H        1 ZINC000514391472    0.0600
67     H67     2.4448  -11.5861   -2.0850 H        1 ZINC000514391472    0.1000
68     H68    -1.8748   -6.1405    1.0207 H        1 ZINC000514391472    0.1300
69     H69    -4.0261   -7.1639    0.3980 H        1 ZINC000514391472    0.1300
70     H70    -4.5064   -7.6812   -1.9610 H        1 ZINC000514391472    0.1200
71     H71    -2.8357   -7.1743   -3.6974 H        1 ZINC000514391472    0.1300
72     H72    -0.6863   -6.1466   -3.0753 H        1 ZINC000514391472    0.1300
@<TRIPOS>BOND
1     1     2     2
2     1     39    1
3     1     40    1
4     2     3     1
5     2     41    1
6     3     4     1
7     3     42    1
8     3     43    1
9     4     17    1
10    4     5     1
11    5     6     1
12    5     15    2
13    6     7     1
14    6     44    1
15    6     45    1
16    7     8     1
17    7     46    1
18    7     47    1
19    8     9     1
20    8     14    1
21    8     10    1
22    10    11    1
23    10    48    1
24    10    49    1
25    11    12    1
26    11    50    1
27    11    51    1
28    12    13    1
29    12    52    1
30    12    53    1
31    13    14    1
32    13    54    1
33    13    55    1
34    14    56    1
35    14    57    1
36    15    16    1
37    16    17    2
38    17    18    1
39    18    19    1
40    19    20    1
41    19    21    1
42    19    33    1
43    21    22    2
44    21    23    am
45    23    24    1
46    23    58    1
47    24    30    ar
48    24    25    ar
49    25    26    ar
50    25    59    1
51    26    27    1
52    26    28    ar
53    27    60    1
54    27    61    1
55    27    62    1
56    28    29    ar
57    28    63    1
58    29    30    ar
59    29    64    1
60    30    31    1
61    31    32    1
62    32    65    1
63    32    66    1
64    32    67    1
65    33    38    ar
66    33    34    ar
67    34    35    ar
68    34    68    1
69    35    36    ar
70    35    69    1
71    36    37    ar
72    36    70    1
73    37    38    ar
74    37    71    1
75    38    72    1
@<TRIPOS>SUBSTRUCTURE
1   ZINC000514391472 1     RESIDUE    1   A     ZIN   1
