@<TRIPOS>MOLECULE
ZINC000022800406
58    60    1     0     0
SMALL
USER_CHARGES
@<TRIPOS>ATOM
1      C1     -0.6746    0.9796    0.9764 C.3      1 ZINC000022800406   -0.1400
2      C2     -0.5361   -0.4467    0.5099 C.ar     1 ZINC000022800406    0.0300
3      C3     -0.2326   -0.7114   -0.8141 C.ar     1 ZINC000022800406   -0.1200
4      C4     -0.1042   -2.0138   -1.2487 C.ar     1 ZINC000022800406   -0.0400
5      C5     -0.2810   -3.0683   -0.3476 C.ar     1 ZINC000022800406   -0.1900
6      C6     -0.1453   -4.4611   -0.8031 C.2      1 ZINC000022800406    0.3900
7      O7     -0.2993   -5.3732   -0.0190 O.2      1 ZINC000022800406   -0.3700
8      C8      0.1851   -4.7539   -2.2440 C.3      1 ZINC000022800406    0.0600
9      C9      0.8551   -6.1002   -2.3422 C.2      1 ZINC000022800406    0.2200
10     S10     0.0848   -7.3294   -3.0148 S.2      1 ZINC000022800406   -0.3200
11     N11     2.1036   -6.2681   -1.8631 N.am     1 ZINC000022800406   -0.5600
12     C12     2.7728   -7.4807   -2.0636 C.ar     1 ZINC000022800406    0.0900
13     C13     2.6687   -8.1390   -3.2818 C.ar     1 ZINC000022800406   -0.0400
14     C14     3.3303   -9.3357   -3.4783 C.ar     1 ZINC000022800406   -0.1300
15     C15     4.0968   -9.8793   -2.4620 C.ar     1 ZINC000022800406    0.1400
16     F16     4.7433  -11.0496   -2.6566 F        1 ZINC000022800406   -0.1100
17     C17     4.2024   -9.2243   -1.2450 C.ar     1 ZINC000022800406   -0.0700
18     Cl18    5.1650   -9.9080    0.0277 Cl       1 ZINC000022800406   -0.0200
19     C19     3.5464   -8.0244   -1.0464 C.ar     1 ZINC000022800406   -0.0700
20     N20    -1.0477   -4.7630   -3.0355 N.ar     1 ZINC000022800406   -0.3400
21     C21    -2.0001   -5.6225   -2.7305 C.ar     1 ZINC000022800406    0.1800
22     C22    -3.1768   -5.6600   -3.4544 C.ar     1 ZINC000022800406   -0.1200
23     C23    -3.3480   -4.7794   -4.5116 C.ar     1 ZINC000022800406    0.0700
24     C24    -4.6165   -4.7882   -5.3252 C.3      1 ZINC000022800406   -0.0500
25     C25    -5.8089   -4.4904   -4.4140 C.3      1 ZINC000022800406   -0.1500
26     C26    -4.5295   -3.7197   -6.4169 C.3      1 ZINC000022800406   -0.1600
27     C27    -4.7989   -6.1633   -5.9708 C.3      1 ZINC000022800406   -0.1500
28     C28    -2.3245   -3.8904   -4.8023 C.ar     1 ZINC000022800406   -0.1300
29     C29    -1.1780   -3.9079   -4.0308 C.ar     1 ZINC000022800406    0.1200
30     C30    -0.5871   -2.7925    0.9891 C.ar     1 ZINC000022800406    0.0200
31     C31    -0.7074   -1.4849    1.4092 C.ar     1 ZINC000022800406   -0.0400
32     N32    -1.0312   -1.1908    2.8231 N.pl3    1 ZINC000022800406    0.0100
33     O33    -0.5087   -0.2439    3.3833 O.2      1 ZINC000022800406   -0.1200
34     O34    -1.8203   -1.8956    3.4265 O.2      1 ZINC000022800406   -0.1400
35     H35     0.2698    1.3149    1.4052 H        1 ZINC000022800406    0.1100
36     H36    -0.9352    1.6150    0.1300 H        1 ZINC000022800406    0.0900
37     H37    -1.4584    1.0404    1.7314 H        1 ZINC000022800406    0.0900
38     H38    -0.0964    0.1042   -1.5088 H        1 ZINC000022800406    0.1700
39     H39     0.1320   -2.2188   -2.2825 H        1 ZINC000022800406    0.1400
40     H40     0.8566   -3.9851   -2.6262 H        1 ZINC000022800406    0.1800
41     H41     2.5383   -5.5485   -1.3794 H        1 ZINC000022800406    0.4200
42     H42     2.0705   -7.7158   -4.0751 H        1 ZINC000022800406    0.1500
43     H43     3.2490   -9.8478   -4.4257 H        1 ZINC000022800406    0.1600
44     H44     3.6289   -7.5138   -0.0983 H        1 ZINC000022800406    0.1500
45     H45    -1.8589   -6.3053   -1.9058 H        1 ZINC000022800406    0.2000
46     H46    -3.9531   -6.3665   -3.2000 H        1 ZINC000022800406    0.1900
47     H47    -5.6789   -3.5107   -3.9540 H        1 ZINC000022800406    0.0600
48     H48    -6.7264   -4.4967   -5.0024 H        1 ZINC000022800406    0.0800
49     H49    -5.8708   -5.2515   -3.6362 H        1 ZINC000022800406    0.0700
50     H50    -3.6801   -3.9319   -7.0661 H        1 ZINC000022800406    0.0700
51     H51    -5.4470   -3.7260   -7.0054 H        1 ZINC000022800406    0.0800
52     H52    -4.3996   -2.7401   -5.9570 H        1 ZINC000022800406    0.0700
53     H53    -4.8608   -6.9244   -5.1931 H        1 ZINC000022800406    0.0700
54     H54    -5.7164   -6.1696   -6.5592 H        1 ZINC000022800406    0.0800
55     H55    -3.9494   -6.3754   -6.6200 H        1 ZINC000022800406    0.0700
56     H56    -2.4235   -3.1906   -5.6190 H        1 ZINC000022800406    0.1900
57     H57    -0.3761   -3.2186   -4.2507 H        1 ZINC000022800406    0.2000
58     H58    -0.7255   -3.6016    1.6909 H        1 ZINC000022800406    0.1700
@<TRIPOS>BOND
1     1     2     1
2     1     35    1
3     1     36    1
4     1     37    1
5     2     31    ar
6     2     3     ar
7     3     4     ar
8     3     38    1
9     4     5     ar
10    4     39    1
11    5     6     1
12    5     30    ar
13    6     7     2
14    6     8     1
15    8     9     1
16    8     20    1
17    8     40    1
18    9     10    2
19    9     11    am
20    11    12    1
21    11    41    1
22    12    19    ar
23    12    13    ar
24    13    14    ar
25    13    42    1
26    14    15    ar
27    14    43    1
28    15    16    1
29    15    17    ar
30    17    18    1
31    17    19    ar
32    19    44    1
33    20    29    ar
34    20    21    ar
35    21    22    ar
36    21    45    1
37    22    23    ar
38    22    46    1
39    23    24    1
40    23    28    ar
41    24    25    1
42    24    26    1
43    24    27    1
44    25    47    1
45    25    48    1
46    25    49    1
47    26    50    1
48    26    51    1
49    26    52    1
50    27    53    1
51    27    54    1
52    27    55    1
53    28    29    ar
54    28    56    1
55    29    57    1
56    30    31    ar
57    30    58    1
58    31    32    1
59    32    33    2
60    32    34    2
@<TRIPOS>SUBSTRUCTURE
1   ZINC000022800406 1     RESIDUE    1   A     ZIN   1
