MODEL 1
REMARK VINA RESULT:      -7.4      0.000      0.000
REMARK  Name = ZINC000022735258
REMARK  13 active torsions:
REMARK  status: ('A' for Active; 'I' for Inactive)
REMARK    1  A    between atoms: C1_1  and  C2_2
REMARK    2  A    between atoms: C2_2  and  C3_3
REMARK    3  A    between atoms: C3_3  and  C4_4
REMARK    4  A    between atoms: C3_3  and  C6_6
REMARK    5  A    between atoms: C4_4  and  C5_5
REMARK    6  A    between atoms: N9_9  and  C10_10
REMARK    7  A    between atoms: C10_10  and  C11_11
REMARK    8  A    between atoms: C10_10  and  C21_21
REMARK    9  A    between atoms: C11_11  and  C13_13
REMARK   10  A    between atoms: C21_21  and  N23_23
REMARK   11  A    between atoms: N23_23  and  C24_24
REMARK   12  A    between atoms: C24_24  and  C25_25
REMARK   13  A    between atoms: C25_25  and  C26_26
REMARK                            x       y       z     vdW  Elec       q    Type
REMARK                         _______ _______ _______ _____ _____    ______ ____
ROOT
ATOM      1  C   UNL     1     -10.197  14.021  67.508  0.00  0.00    +0.240 C 
ENDROOT
BRANCH   1   5
ATOM      2  C   UNL     1     -12.313  14.191  71.131  0.00  0.00    +0.070 A 
ATOM      3  C   UNL     1     -11.669  15.314  70.631  0.00  0.00    +0.070 A 
ATOM      4  C   UNL     1     -10.982  15.219  69.435  0.00  0.00    +0.330 A 
ATOM      5  N   UNL     1     -10.935  14.080  68.772  0.00  0.00    -0.340 N 
ATOM      6  C   UNL     1     -11.536  12.993  69.218  0.00  0.00    +0.380 A 
ATOM      7  C   UNL     1     -12.236  13.010  70.408  0.00  0.00    +0.070 A 
BRANCH   2   8
ATOM      8  C   UNL     1     -13.072  14.253  72.431  0.00  0.00    +0.040 C 
BRANCH   8  10
ATOM      9  C   UNL     1     -12.415  15.615  74.420  0.00  0.00    +0.020 C 
ATOM     10  C   UNL     1     -12.990  15.670  73.003  0.00  0.00    +0.020 C 
ENDBRANCH   8  10
BRANCH   8  11
ATOM     11  C   UNL     1     -14.537  13.887  72.185  0.00  0.00    +0.040 C 
ATOM     12  C   UNL     1     -15.241  15.049  71.480  0.00  0.00    +0.020 C 
ENDBRANCH   8  11
ENDBRANCH   2   8
ENDBRANCH   1   5
BRANCH   1  13
ATOM     13  C   UNL     1      -9.702  15.399  67.150  0.00  0.00    +0.230 C 
ATOM     14  S   UNL     1      -8.133  15.674  67.013  0.00  0.00    -0.370 S 
BRANCH  13  15
ATOM     15  N   UNL     1     -10.583  16.399  66.946  0.00  0.00    -0.620 N 
ATOM     16  H   UNL     1     -11.451  16.376  67.379  0.00  0.00    +0.410 HD
BRANCH  15  17
ATOM     17  C   UNL     1     -10.228  17.519  66.072  0.00  0.00    +0.320 C 
BRANCH  17  18
ATOM     18  C   UNL     1     -10.405  18.835  66.833  0.00  0.00    +0.070 C 
BRANCH  18  19
ATOM     19  C   UNL     1      -9.060  19.334  67.293  0.00  0.00    -0.100 A 
ATOM     20  C   UNL     1      -8.242  20.026  66.419  0.00  0.00    +0.010 A 
ATOM     21  C   UNL     1      -7.009  20.483  66.841  0.00  0.00    +0.010 A 
ATOM     22  C   UNL     1      -6.592  20.251  68.138  0.00  0.00    +0.020 A 
ATOM     23  C   UNL     1      -7.409  19.559  69.013  0.00  0.00    +0.010 A 
ATOM     24  C   UNL     1      -8.645  19.105  68.592  0.00  0.00    +0.010 A 
ENDBRANCH  18  19
ENDBRANCH  17  18
ENDBRANCH  15  17
ENDBRANCH  13  15
ENDBRANCH   1  13
BRANCH   1  25
ATOM     25  C   UNL     1     -11.108  13.514  66.419  0.00  0.00    +0.390 C 
ATOM     26  O   UNL     1     -12.233  13.954  66.316  0.00  0.00    -0.380 OA
BRANCH  25  27
ATOM     27  C   UNL     1     -10.631  12.487  65.480  0.00  0.00    -0.170 A 
ATOM     28  C   UNL     1     -10.561  12.764  64.111  0.00  0.00    +0.070 A 
ATOM     29  C   UNL     1     -10.113  11.797  63.237  0.00  0.00    +0.060 A 
ATOM     30  C   UNL     1      -9.732  10.553  63.712  0.00  0.00    +0.010 A 
ATOM     31  C   UNL     1      -9.799  10.270  65.068  0.00  0.00    -0.040 A 
ATOM     32 CL   UNL     1      -9.320   8.706  65.651  0.00  0.00    -0.010 Cl
ATOM     33 CL   UNL     1      -9.170   9.341  62.603  0.00  0.00    -0.010 Cl
ATOM     34  C   UNL     1     -10.241  11.230  65.954  0.00  0.00    +0.140 A 
ENDBRANCH  25  27
ENDBRANCH   1  25
TORSDOF 11
ENDMDL
