MODEL 1
REMARK VINA RESULT:      -7.6      0.000      0.000
REMARK  Name = ZINC000022727009
REMARK  10 active torsions:
REMARK  status: ('A' for Active; 'I' for Inactive)
REMARK    1  A    between atoms: C1_1  and  C2_2
REMARK    2  A    between atoms: C5_5  and  C6_6
REMARK    3  A    between atoms: C6_6  and  C8_8
REMARK    4  A    between atoms: C8_8  and  C9_9
REMARK    5  A    between atoms: C8_8  and  N19_19
REMARK    6  A    between atoms: C9_9  and  N11_11
REMARK    7  A    between atoms: N11_11  and  C12_12
REMARK    8  A    between atoms: C22_22  and  C23_23
REMARK    9  A    between atoms: C23_23  and  C24_24
REMARK   10  A    between atoms: C33_33  and  N34_34
REMARK                            x       y       z     vdW  Elec       q    Type
REMARK                         _______ _______ _______ _____ _____    ______ ____
ROOT
ATOM      1  C   UNL     1      -9.474  11.934  68.257  0.00  0.00    +0.270 C 
ENDROOT
BRANCH   1   2
ATOM      2  N   UNL     1      -9.734  13.342  68.566  0.00  0.00    -0.340 N 
ATOM      3  C   UNL     1     -10.970  13.726  68.818  0.00  0.00    +0.320 A 
ATOM      4  C   UNL     1     -11.253  15.046  69.114  0.00  0.00    +0.080 A 
ATOM      5  C   UNL     1     -10.218  15.969  69.144  0.00  0.00    +0.060 A 
ATOM      6  C   UNL     1      -8.932  15.527  68.874  0.00  0.00    +0.070 A 
ATOM      7  C   UNL     1      -8.725  14.190  68.591  0.00  0.00    +0.350 A 
BRANCH   5   8
ATOM      8  C   UNL     1     -10.485  17.418  69.463  0.00  0.00    +0.160 C 
BRANCH   8   9
ATOM      9  C   UNL     1     -10.064  18.274  68.296  0.00  0.00    -0.110 A 
ATOM     10  C   UNL     1      -8.982  19.125  68.418  0.00  0.00    +0.010 A 
ATOM     11  C   UNL     1      -8.597  19.911  67.348  0.00  0.00    +0.020 A 
ATOM     12  C   UNL     1      -9.294  19.845  66.156  0.00  0.00    +0.020 A 
ATOM     13  C   UNL     1     -10.376  18.994  66.034  0.00  0.00    +0.020 A 
ATOM     14  C   UNL     1     -10.759  18.205  67.103  0.00  0.00    +0.020 A 
ENDBRANCH   8   9
ENDBRANCH   5   8
ENDBRANCH   1   2
BRANCH   1  15
ATOM     15  C   UNL     1     -10.732  11.131  68.474  0.00  0.00    +0.400 C 
ATOM     16  O   UNL     1     -11.660  11.239  67.701  0.00  0.00    -0.410 OA
BRANCH  15  21
ATOM     17  C   UNL     1     -11.125   7.557  72.959  0.00  0.00    +0.140 C 
ATOM     18  C   UNL     1     -11.022   8.495  71.783  0.00  0.00    +0.040 A 
ATOM     19  C   UNL     1      -9.779   8.824  71.272  0.00  0.00    +0.050 A 
ATOM     20  C   UNL     1      -9.676   9.680  70.197  0.00  0.00    +0.120 A 
ATOM     21  C   UNL     1     -10.833  10.216  69.622  0.00  0.00    -0.190 A 
ATOM     22  C   UNL     1     -12.086   9.879  70.144  0.00  0.00    +0.180 A 
ATOM     23  C   UNL     1     -12.172   9.017  71.216  0.00  0.00    -0.050 A 
BRANCH  23  24
ATOM     24  N   UNL     1     -13.497   8.658  71.770  0.00  0.00    +0.020 N 
ATOM     25  O   UNL     1     -14.084   7.676  71.354  0.00  0.00    -0.140 OA
ATOM     26  O   UNL     1     -13.999   9.344  72.642  0.00  0.00    -0.120 OA
ENDBRANCH  23  24
ENDBRANCH  15  21
ENDBRANCH   1  15
BRANCH   1  27
ATOM     27  C   UNL     1      -9.039  11.806  66.820  0.00  0.00    +0.190 C 
ATOM     28  S   UNL     1      -8.413  10.432  66.294  0.00  0.00    -0.260 S 
BRANCH  27  29
ATOM     29  N   UNL     1      -9.176  12.850  65.980  0.00  0.00    -0.590 N 
ATOM     30  H   UNL     1      -8.505  13.550  65.962  0.00  0.00    +0.410 HD
BRANCH  29  31
ATOM     31  C   UNL     1     -10.288  12.926  65.132  0.00  0.00    +0.050 A 
ATOM     32  C   UNL     1     -10.651  11.830  64.362  0.00  0.00    +0.110 A 
ATOM     33  C   UNL     1     -11.749  11.908  63.527  0.00  0.00    +0.040 A 
ATOM     34  C   UNL     1     -12.486  13.074  63.457  0.00  0.00    +0.090 A 
ATOM     35  C   UNL     1     -12.129  14.170  64.222  0.00  0.00    +0.010 A 
ATOM     36  C   UNL     1     -11.035  14.098  65.065  0.00  0.00    +0.110 A 
ATOM     37  F   UNL     1     -10.685  15.167  65.813  0.00  0.00    -0.140 F 
ENDBRANCH  29  31
ENDBRANCH  27  29
ENDBRANCH   1  27
TORSDOF 9
ENDMDL
