REMARK  Name = ZINC000027310962
REMARK  15 active torsions:
REMARK  status: ('A' for Active; 'I' for Inactive)
REMARK    1  A    between atoms: C2_2  and  C3_3
REMARK    2  A    between atoms: C2_2  and  C4_4
REMARK    3  A    between atoms: C4_4  and  N5_5
REMARK    4  A    between atoms: N5_5  and  C6_6
REMARK    5  A    between atoms: C6_6  and  C8_8
REMARK    6  A    between atoms: C8_8  and  C9_9
REMARK    7  A    between atoms: C8_8  and  N24_24
REMARK    8  A    between atoms: C9_9  and  C11_11
REMARK    9  A    between atoms: C14_14  and  N15_15
REMARK   10  A    between atoms: C16_16  and  C18_18
REMARK   11  A    between atoms: C18_18  and  C19_19
REMARK   12  A    between atoms: C18_18  and  C20_20
REMARK   13  A    between atoms: C18_18  and  C21_21
REMARK   14  A    between atoms: C27_27  and  C28_28
REMARK   15  A    between atoms: C28_28  and  C29_29
REMARK                            x       y       z     vdW  Elec       q    Type
REMARK                         _______ _______ _______ _____ _____    ______ ____
ROOT
ATOM      1  C   UNL     1       3.230  -2.395   3.000  0.00  0.00    +0.220 C 
ENDROOT
BRANCH   1   2
ATOM      2  N   UNL     1       2.147  -3.231   3.526  0.00  0.00    -0.340 N 
ATOM      3  C   UNL     1       0.897  -2.872   3.312  0.00  0.00    +0.350 A 
ATOM      4  C   UNL     1      -0.150  -3.635   3.792  0.00  0.00    +0.070 A 
ATOM      5  C   UNL     1       0.128  -4.790   4.507  0.00  0.00    +0.060 A 
ATOM      6  C   UNL     1       1.455  -5.135   4.712  0.00  0.00    +0.070 A 
ATOM      7  C   UNL     1       2.449  -4.325   4.197  0.00  0.00    +0.330 A 
BRANCH   5   8
ATOM      8  C   UNL     1      -0.986  -5.650   5.048  0.00  0.00    +0.160 C 
BRANCH   8   9
ATOM      9  C   UNL     1      -1.364  -6.685   4.020  0.00  0.00    -0.100 A 
ATOM     10  C   UNL     1      -2.341  -6.404   3.083  0.00  0.00    +0.010 A 
ATOM     11  C   UNL     1      -2.688  -7.354   2.141  0.00  0.00    +0.020 A 
ATOM     12  C   UNL     1      -2.059  -8.585   2.135  0.00  0.00    +0.020 A 
ATOM     13  C   UNL     1      -1.082  -8.866   3.072  0.00  0.00    +0.020 A 
ATOM     14  C   UNL     1      -0.731  -7.914   4.012  0.00  0.00    +0.010 A 
ENDBRANCH   8   9
ENDBRANCH   5   8
ENDBRANCH   1   2
BRANCH   1  15
ATOM     15  C   UNL     1       3.015  -2.165   1.526  0.00  0.00    +0.200 C 
ATOM     16  S   UNL     1       2.662  -0.700   0.990  0.00  0.00    -0.310 S 
BRANCH  15  17
ATOM     17  N   UNL     1       3.120  -3.192   0.661  0.00  0.00    -0.630 N 
ATOM     18  H   UNL     1       3.403  -4.065   0.976  0.00  0.00    +0.400 HD
BRANCH  17  19
ATOM     19  C   UNL     1       2.808  -2.991  -0.756  0.00  0.00    +0.350 C 
BRANCH  19  21
ATOM     20  C   UNL     1       1.985  -5.082  -1.713  0.00  0.00    +0.070 C 
ATOM     21  C   UNL     1       3.004  -4.286  -1.502  0.00  0.00    -0.160 C 
ATOM     22  C   UNL     1       4.373  -4.665  -2.006  0.00  0.00    +0.090 C 
ENDBRANCH  19  21
ENDBRANCH  17  19
ENDBRANCH  15  17
ENDBRANCH   1  15
BRANCH   1  23
ATOM     23  C   UNL     1       3.238  -1.071   3.720  0.00  0.00    +0.430 C 
ATOM     24  O   UNL     1       2.220  -0.652   4.229  0.00  0.00    -0.420 OA
BRANCH  23  25
ATOM     25  C   UNL     1       4.478  -0.290   3.805  0.00  0.00    -0.190 A 
ATOM     26  C   UNL     1       5.653  -0.770   3.213  0.00  0.00    +0.070 A 
ATOM     27  C   UNL     1       6.808  -0.036   3.295  0.00  0.00    +0.020 A 
ATOM     28  C   UNL     1       6.815   1.183   3.966  0.00  0.00    +0.210 A 
ATOM     29  C   UNL     1       5.649   1.665   4.556  0.00  0.00    -0.020 A 
ATOM     30  C   UNL     1       4.488   0.941   4.474  0.00  0.00    +0.130 A 
BRANCH  28  31
ATOM     31  N   UNL     1       7.991   1.925   4.047  0.00  0.00    -0.670 N 
ATOM     32  H   UNL     1       8.175   2.458   4.836  0.00  0.00    +0.420 HD
ATOM     33  C   UNL     1       8.874   1.902   3.029  0.00  0.00    +0.530 C 
ATOM     34  O   UNL     1       8.603   1.312   2.005  0.00  0.00    -0.510 OA
BRANCH  33  35
ATOM     35  C   UNL     1      10.197   2.610   3.162  0.00  0.00    -0.080 C 
ATOM     36  C   UNL     1      10.976   2.018   4.339  0.00  0.00    +0.060 C 
ATOM     37  C   UNL     1       9.956   4.101   3.409  0.00  0.00    +0.060 C 
ATOM     38  C   UNL     1      11.004   2.430   1.875  0.00  0.00    +0.070 C 
ENDBRANCH  33  35
ENDBRANCH  28  31
ENDBRANCH  23  25
ENDBRANCH   1  23
TORSDOF 11
