@<TRIPOS>MOLECULE
ZINC000514391473
72    75    1     0     0
SMALL
USER_CHARGES
@<TRIPOS>ATOM
1      C1     -0.0687    1.3026    0.0411 C.2      1 ZINC000514391473   -0.1700
2      C2     -0.0434   -0.0071    0.0296 C.2      1 ZINC000514391473   -0.1800
3      C3     -1.3336   -0.7858    0.0422 C.3      1 ZINC000514391473    0.1300
4      N4     -1.3592   -1.7068   -1.0968 N.pl3    1 ZINC000514391473   -0.4500
5      C5     -1.8392   -1.4543   -2.3523 C.2      1 ZINC000514391473    0.1500
6      C6     -2.4489   -0.1624   -2.8322 C.3      1 ZINC000514391473   -0.0500
7      C7     -1.3513    0.7398   -3.3996 C.3      1 ZINC000514391473   -0.0100
8      N8     -1.9456    1.9991   -3.8674 N.4      1 ZINC000514391473   -0.3800
9      H9     -2.6824    1.7976   -4.5267 H        1 ZINC000514391473    0.4300
10     C10    -0.9137    2.8119   -4.5223 C.3      1 ZINC000514391473   -0.0100
11     C11    -1.5442    4.0886   -5.0829 C.3      1 ZINC000514391473   -0.1500
12     C12    -2.1736    4.8862   -3.9371 C.3      1 ZINC000514391473   -0.1400
13     C13    -3.1951    4.0034   -3.2145 C.3      1 ZINC000514391473   -0.1400
14     C14    -2.5019    2.7307   -2.7229 C.3      1 ZINC000514391473   -0.0200
15     N15    -1.6712   -2.5374   -3.0568 N.2      1 ZINC000514391473   -0.2600
16     N16    -1.1220   -3.4505   -2.3382 N.2      1 ZINC000514391473   -0.2700
17     C17    -0.9034   -2.9935   -1.1270 C.2      1 ZINC000514391473    0.1700
18     S18    -0.1701   -3.8768    0.2097 S.3      1 ZINC000514391473    0.1000
19     C19     0.1395   -5.4673   -0.5969 C.3      1 ZINC000514391473   -0.0600
20     H20    -0.7905   -5.8473   -1.0199 H        1 ZINC000514391473    0.1300
21     C21     0.6689   -6.4496    0.4159 C.2      1 ZINC000514391473    0.5400
22     O22     1.1613   -6.0489    1.4495 O.2      1 ZINC000514391473   -0.5100
23     N23     0.5954   -7.7733    0.1733 N.am     1 ZINC000514391473   -0.6500
24     C24     1.1707   -8.6830    1.0704 C.ar     1 ZINC000514391473    0.1100
25     C25     1.1652   -8.4155    2.4312 C.ar     1 ZINC000514391473   -0.0800
26     C26     1.7335   -9.3145    3.3143 C.ar     1 ZINC000514391473   -0.1000
27     C27     1.7266   -9.0223    4.7927 C.3      1 ZINC000514391473   -0.1100
28     C28     2.3075  -10.4810    2.8447 C.ar     1 ZINC000514391473   -0.0900
29     C29     2.3172  -10.7544    1.4892 C.ar     1 ZINC000514391473   -0.1900
30     C30     1.7448   -9.8615    0.5982 C.ar     1 ZINC000514391473    0.1000
31     O31     1.7532  -10.1291   -0.7349 O.3      1 ZINC000514391473   -0.3200
32     C32     2.3698  -11.3503   -1.1476 C.3      1 ZINC000514391473    0.0300
33     C33     1.1535   -5.2839   -1.6966 C.ar     1 ZINC000514391473   -0.1000
34     C34     2.4189   -4.8140   -1.3985 C.ar     1 ZINC000514391473   -0.0900
35     C35     3.3490   -4.6458   -2.4072 C.ar     1 ZINC000514391473   -0.1200
36     C36     3.0139   -4.9479   -3.7138 C.ar     1 ZINC000514391473   -0.1000
37     C37     1.7488   -5.4187   -4.0117 C.ar     1 ZINC000514391473   -0.1200
38     C38     0.8200   -5.5910   -3.0025 C.ar     1 ZINC000514391473   -0.0700
39     H39     0.8560    1.8606    0.0321 H        1 ZINC000514391473    0.1100
40     H40    -1.0142    1.8244    0.0550 H        1 ZINC000514391473    0.1000
41     H41     0.9020   -0.5289    0.0112 H        1 ZINC000514391473    0.1300
42     H42    -1.4065   -1.3532    0.9700 H        1 ZINC000514391473    0.1200
43     H43    -2.1748   -0.0963   -0.0291 H        1 ZINC000514391473    0.1000
44     H44    -3.1833   -0.3739   -3.6094 H        1 ZINC000514391473    0.1200
45     H45    -2.9376    0.3407   -1.9978 H        1 ZINC000514391473    0.1000
46     H46    -0.6169    0.9513   -2.6223 H        1 ZINC000514391473    0.1300
47     H47    -0.8626    0.2367   -4.2339 H        1 ZINC000514391473    0.1400
48     H48    -0.1445    3.0756   -3.7964 H        1 ZINC000514391473    0.1300
49     H49    -0.4645    2.2418   -5.3354 H        1 ZINC000514391473    0.1300
50     H50    -0.7761    4.6915   -5.5672 H        1 ZINC000514391473    0.1100
51     H51    -2.3134    3.8261   -5.8091 H        1 ZINC000514391473    0.0900
52     H52    -1.3967    5.1928   -3.2367 H        1 ZINC000514391473    0.0800
53     H53    -2.6730    5.7681   -4.3382 H        1 ZINC000514391473    0.1000
54     H54    -3.6071    4.5454   -2.3633 H        1 ZINC000514391473    0.1100
55     H55    -3.9986    3.7391   -3.9019 H        1 ZINC000514391473    0.0900
56     H56    -3.2256    2.0992   -2.2076 H        1 ZINC000514391473    0.1300
57     H57    -1.6991    2.9972   -2.0355 H        1 ZINC000514391473    0.1300
58     H58     0.1442   -8.0962   -0.6223 H        1 ZINC000514391473    0.4200
59     H59     0.7174   -7.5049    2.8009 H        1 ZINC000514391473    0.1500
60     H60     0.8217   -9.4334    5.2401 H        1 ZINC000514391473    0.0700
61     H61     2.6010   -9.4782    5.2572 H        1 ZINC000514391473    0.0700
62     H62     1.7522   -7.9441    4.9501 H        1 ZINC000514391473    0.0700
63     H63     2.7500  -11.1807    3.5383 H        1 ZINC000514391473    0.1300
64     H64     2.7669  -11.6665    1.1255 H        1 ZINC000514391473    0.1400
65     H65     3.4162  -11.3504   -0.8423 H        1 ZINC000514391473    0.0600
66     H66     1.8558  -12.1919   -0.6832 H        1 ZINC000514391473    0.0600
67     H67     2.3078  -11.4403   -2.2321 H        1 ZINC000514391473    0.1000
68     H68     2.6807   -4.5780   -0.3777 H        1 ZINC000514391473    0.1300
69     H69     4.3374   -4.2780   -2.1744 H        1 ZINC000514391473    0.1200
70     H70     3.7404   -4.8158   -4.5020 H        1 ZINC000514391473    0.1200
71     H71     1.4869   -5.6544   -5.0326 H        1 ZINC000514391473    0.1300
72     H72    -0.1684   -5.9588   -3.2352 H        1 ZINC000514391473    0.1300
@<TRIPOS>BOND
1     1     2     2
2     1     39    1
3     1     40    1
4     2     3     1
5     2     41    1
6     3     4     1
7     3     42    1
8     3     43    1
9     4     17    1
10    4     5     1
11    5     6     1
12    5     15    2
13    6     7     1
14    6     44    1
15    6     45    1
16    7     8     1
17    7     46    1
18    7     47    1
19    8     9     1
20    8     14    1
21    8     10    1
22    10    11    1
23    10    48    1
24    10    49    1
25    11    12    1
26    11    50    1
27    11    51    1
28    12    13    1
29    12    52    1
30    12    53    1
31    13    14    1
32    13    54    1
33    13    55    1
34    14    56    1
35    14    57    1
36    15    16    1
37    16    17    2
38    17    18    1
39    18    19    1
40    19    20    1
41    19    21    1
42    19    33    1
43    21    22    2
44    21    23    am
45    23    24    1
46    23    58    1
47    24    30    ar
48    24    25    ar
49    25    26    ar
50    25    59    1
51    26    27    1
52    26    28    ar
53    27    60    1
54    27    61    1
55    27    62    1
56    28    29    ar
57    28    63    1
58    29    30    ar
59    29    64    1
60    30    31    1
61    31    32    1
62    32    65    1
63    32    66    1
64    32    67    1
65    33    38    ar
66    33    34    ar
67    34    35    ar
68    34    68    1
69    35    36    ar
70    35    69    1
71    36    37    ar
72    36    70    1
73    37    38    ar
74    37    71    1
75    38    72    1
@<TRIPOS>SUBSTRUCTURE
1   ZINC000514391473 1     RESIDUE    1   A     ZIN   1
