MODEL 1
REMARK VINA RESULT:      -7.7      0.000      0.000
REMARK  Name = ZINC000022800406
REMARK  12 active torsions:
REMARK  status: ('A' for Active; 'I' for Inactive)
REMARK    1  A    between atoms: C1_1  and  C2_2
REMARK    2  A    between atoms: C5_5  and  C6_6
REMARK    3  A    between atoms: C6_6  and  C8_8
REMARK    4  A    between atoms: C8_8  and  C9_9
REMARK    5  A    between atoms: C8_8  and  N20_20
REMARK    6  A    between atoms: C9_9  and  N11_11
REMARK    7  A    between atoms: N11_11  and  C12_12
REMARK    8  A    between atoms: C23_23  and  C24_24
REMARK    9  A    between atoms: C24_24  and  C25_25
REMARK   10  A    between atoms: C24_24  and  C26_26
REMARK   11  A    between atoms: C24_24  and  C27_27
REMARK   12  A    between atoms: C31_31  and  N32_32
REMARK                            x       y       z     vdW  Elec       q    Type
REMARK                         _______ _______ _______ _____ _____    ______ ____
ROOT
ATOM      1  C   UNL     1      -9.904  13.897  67.594  0.00  0.00    +0.240 C 
ENDROOT
BRANCH   1   2
ATOM      2  N   UNL     1     -10.849  14.006  68.708  0.00  0.00    -0.340 N 
ATOM      3  C   UNL     1     -11.319  12.906  69.262  0.00  0.00    +0.380 A 
ATOM      4  C   UNL     1     -12.212  12.969  70.314  0.00  0.00    +0.070 A 
ATOM      5  C   UNL     1     -12.614  14.210  70.786  0.00  0.00    +0.070 A 
ATOM      6  C   UNL     1     -12.099  15.345  70.178  0.00  0.00    +0.060 A 
ATOM      7  C   UNL     1     -11.206  15.203  69.133  0.00  0.00    +0.320 A 
BRANCH   5   8
ATOM      8  C   UNL     1     -13.586  14.322  71.932  0.00  0.00    -0.050 C 
ATOM      9  C   UNL     1     -14.826  15.094  71.476  0.00  0.00    +0.070 C 
ATOM     10  C   UNL     1     -12.922  15.066  73.092  0.00  0.00    +0.060 C 
ATOM     11  C   UNL     1     -13.996  12.922  72.391  0.00  0.00    +0.060 C 
ENDBRANCH   5   8
ENDBRANCH   1   2
BRANCH   1  12
ATOM     12  C   UNL     1     -10.665  13.748  66.302  0.00  0.00    +0.390 C 
ATOM     13  O   UNL     1     -11.585  14.496  66.051  0.00  0.00    -0.370 OA
BRANCH  12  18
ATOM     14  C   UNL     1      -9.204   9.629  62.567  0.00  0.00    +0.150 C 
ATOM     15  C   UNL     1      -9.587  10.709  63.547  0.00  0.00    +0.030 A 
ATOM     16  C   UNL     1     -10.375  11.767  63.130  0.00  0.00    +0.050 A 
ATOM     17  C   UNL     1     -10.730  12.759  64.020  0.00  0.00    +0.100 A 
ATOM     18  C   UNL     1     -10.290  12.694  65.346  0.00  0.00    -0.190 A 
ATOM     19  C   UNL     1      -9.494  11.621  65.759  0.00  0.00    +0.190 A 
ATOM     20  C   UNL     1      -9.152  10.635  64.859  0.00  0.00    -0.040 A 
BRANCH  20  21
ATOM     21  N   UNL     1      -8.309   9.498  65.294  0.00  0.00    +0.010 N 
ATOM     22  O   UNL     1      -8.828   8.492  65.742  0.00  0.00    -0.140 OA
ATOM     23  O   UNL     1      -7.097   9.570  65.204  0.00  0.00    -0.120 OA
ENDBRANCH  20  21
ENDBRANCH  12  18
ENDBRANCH   1  12
BRANCH   1  24
ATOM     24  C   UNL     1      -9.052  15.139  67.535  0.00  0.00    +0.220 C 
ATOM     25  S   UNL     1      -8.034  15.468  68.724  0.00  0.00    -0.320 S 
BRANCH  24  26
ATOM     26  N   UNL     1      -9.147  15.972  66.479  0.00  0.00    -0.560 N 
ATOM     27  H   UNL     1      -9.106  15.618  65.577  0.00  0.00    +0.420 HD
BRANCH  26  28
ATOM     28  C   UNL     1      -9.306  17.347  66.686  0.00  0.00    +0.090 A 
ATOM     29  C   UNL     1     -10.537  17.854  67.080  0.00  0.00    +0.110 A 
ATOM     30  C   UNL     1     -10.692  19.211  67.283  0.00  0.00    +0.030 A 
ATOM     31  C   UNL     1      -9.620  20.067  67.096  0.00  0.00    +0.140 A 
ATOM     32  C   UNL     1      -8.390  19.564  66.702  0.00  0.00    -0.070 A 
ATOM     33 CL   UNL     1      -7.047  20.640  66.467  0.00  0.00    -0.020 Cl
ATOM     34  F   UNL     1      -9.774  21.395  67.296  0.00  0.00    -0.110 F 
ATOM     35  C   UNL     1      -8.230  18.206  66.502  0.00  0.00    +0.080 A 
ENDBRANCH  26  28
ENDBRANCH  24  26
ENDBRANCH   1  24
TORSDOF 8
ENDMDL
