REMARK  Name = ZINC000028781045
REMARK  13 active torsions:
REMARK  status: ('A' for Active; 'I' for Inactive)
REMARK    1  A    between atoms: C1_1  and  C2_2
REMARK    2  A    between atoms: C2_2  and  C3_3
REMARK    3  A    between atoms: C2_2  and  C4_4
REMARK    4  A    between atoms: C2_2  and  C5_5
REMARK    5  A    between atoms: N8_8  and  C9_9
REMARK    6  A    between atoms: C9_9  and  C10_10
REMARK    7  A    between atoms: C9_9  and  C21_21
REMARK    8  A    between atoms: C10_10  and  C12_12
REMARK    9  A    between atoms: C15_15  and  N16_16
REMARK   10  A    between atoms: C21_21  and  N23_23
REMARK   11  A    between atoms: N23_23  and  C24_24
REMARK   12  A    between atoms: C27_27  and  O28_28
REMARK   13  A    between atoms: O28_28  and  C29_29
REMARK                            x       y       z     vdW  Elec       q    Type
REMARK                         _______ _______ _______ _____ _____    ______ ____
ROOT
ATOM      1  C   UNL     1       2.595  -1.789  -4.411  0.00  0.00    +0.240 C 
ENDROOT
BRANCH   1   5
ATOM      2  C   UNL     1       0.280  -1.169  -0.965  0.00  0.00    +0.060 A 
ATOM      3  C   UNL     1      -0.240  -1.849  -2.056  0.00  0.00    +0.070 A 
ATOM      4  C   UNL     1       0.552  -2.034  -3.173  0.00  0.00    +0.330 A 
ATOM      5  N   UNL     1       1.787  -1.573  -3.208  0.00  0.00    -0.340 N 
ATOM      6  C   UNL     1       2.314  -0.922  -2.190  0.00  0.00    +0.350 A 
ATOM      7  C   UNL     1       1.580  -0.694  -1.041  0.00  0.00    +0.070 A 
BRANCH   2   9
ATOM      8  C   UNL     1      -0.703   0.556   0.522  0.00  0.00    +0.070 C 
ATOM      9  C   UNL     1      -0.551  -0.946   0.273  0.00  0.00    -0.050 C 
ATOM     10  C   UNL     1      -1.933  -1.573   0.078  0.00  0.00    +0.060 C 
ATOM     11  C   UNL     1       0.139  -1.595   1.474  0.00  0.00    +0.060 C 
ENDBRANCH   2   9
ENDBRANCH   1   5
BRANCH   1  12
ATOM     12  C   UNL     1       3.825  -2.583  -4.054  0.00  0.00    +0.190 C 
ATOM     13  S   UNL     1       5.239  -1.849  -3.918  0.00  0.00    -0.290 S 
BRANCH  12  14
ATOM     14  N   UNL     1       3.733  -3.912  -3.849  0.00  0.00    -0.570 N 
ATOM     15  H   UNL     1       2.895  -4.372  -4.013  0.00  0.00    +0.410 HD
BRANCH  14  16
ATOM     16  C   UNL     1       4.849  -4.630  -3.401  0.00  0.00    +0.060 A 
ATOM     17  C   UNL     1       5.667  -4.098  -2.414  0.00  0.00    +0.100 A 
ATOM     18  C   UNL     1       6.767  -4.806  -1.973  0.00  0.00    +0.030 A 
ATOM     19  C   UNL     1       7.055  -6.050  -2.515  0.00  0.00    +0.140 A 
ATOM     20  C   UNL     1       6.238  -6.583  -3.502  0.00  0.00    -0.030 A 
ATOM     21  C   UNL     1       5.134  -5.878  -3.940  0.00  0.00    +0.080 A 
BRANCH  19  22
ATOM     22  O   UNL     1       8.138  -6.748  -2.080  0.00  0.00    -0.310 OA
BRANCH  22  23
ATOM     23  C   UNL     1       8.374  -8.022  -2.682  0.00  0.00    +0.600 C 
ATOM     24  F   UNL     1       8.560  -7.859  -4.059  0.00  0.00    -0.190 F 
ATOM     25  F   UNL     1       7.274  -8.856  -2.456  0.00  0.00    -0.200 F 
ENDBRANCH  22  23
ENDBRANCH  19  22
ENDBRANCH  14  16
ENDBRANCH  12  14
ENDBRANCH   1  12
BRANCH   1  26
ATOM     26  C   UNL     1       3.006  -0.459  -4.987  0.00  0.00    +0.420 C 
ATOM     27  O   UNL     1       3.066   0.519  -4.271  0.00  0.00    -0.390 OA
BRANCH  26  28
ATOM     28  C   UNL     1       3.334  -0.345  -6.417  0.00  0.00    -0.120 A 
ATOM     29  C   UNL     1       3.260  -1.468  -7.246  0.00  0.00    +0.060 A 
ATOM     30  C   UNL     1       3.569  -1.354  -8.585  0.00  0.00    +0.110 A 
ATOM     31  C   UNL     1       3.952  -0.131  -9.109  0.00  0.00    +0.000 A 
ATOM     32  C   UNL     1       4.027   0.986  -8.294  0.00  0.00    +0.110 A 
ATOM     33  C   UNL     1       3.716   0.888  -6.955  0.00  0.00    +0.130 A 
BRANCH  31  34
ATOM     34  N   UNL     1       4.283  -0.017 -10.547  0.00  0.00    +0.010 N 
ATOM     35  O   UNL     1       4.620   1.058 -11.011  0.00  0.00    -0.130 OA
ATOM     36  O   UNL     1       4.217  -0.997 -11.266  0.00  0.00    -0.140 OA
ENDBRANCH  31  34
ENDBRANCH  26  28
ENDBRANCH   1  26
TORSDOF 10
