MODEL 1
REMARK VINA RESULT:      -7.4      0.000      0.000
REMARK  Name = ZINC000022733112
REMARK  9 active torsions:
REMARK  status: ('A' for Active; 'I' for Inactive)
REMARK    1  A    between atoms: C1_1  and  C2_2
REMARK    2  A    between atoms: C2_2  and  O3_3
REMARK    3  A    between atoms: O3_3  and  C4_4
REMARK    4  A    between atoms: C7_7  and  C8_8
REMARK    5  A    between atoms: C8_8  and  C10_10
REMARK    6  A    between atoms: C10_10  and  C11_11
REMARK    7  A    between atoms: C10_10  and  N22_22
REMARK    8  A    between atoms: C11_11  and  N13_13
REMARK    9  A    between atoms: N13_13  and  C14_14
REMARK                            x       y       z     vdW  Elec       q    Type
REMARK                         _______ _______ _______ _____ _____    ______ ____
ROOT
ATOM      1  C   UNL     1      -9.854  13.520  67.498  0.00  0.00    +0.250 C 
ENDROOT
BRANCH   1   2
ATOM      2  N   UNL     1     -10.805  13.999  68.504  0.00  0.00    -0.330 N 
ATOM      3  C   UNL     1     -11.040  15.292  68.603  0.00  0.00    +0.310 A 
ATOM      4  C   UNL     1     -11.930  15.775  69.542  0.00  0.00    +0.080 A 
ATOM      5  C   UNL     1     -12.579  14.882  70.387  0.00  0.00    +0.050 A 
ATOM      6  C   UNL     1     -13.534  15.424  71.414  0.00  0.00    +0.110 C 
ATOM      7  C   UNL     1     -14.443  14.312  71.936  0.00  0.00    +0.040 C 
ATOM      8  C   UNL     1     -13.568  13.129  72.364  0.00  0.00    +0.040 C 
ATOM      9  C   UNL     1     -12.969  12.490  71.113  0.00  0.00    +0.120 C 
ATOM     10  C   UNL     1     -12.312  13.536  70.252  0.00  0.00    -0.070 A 
ATOM     11  C   UNL     1     -11.408  13.125  69.284  0.00  0.00    +0.340 A 
ENDBRANCH   1   2
BRANCH   1  12
ATOM     12  C   UNL     1     -10.556  13.369  66.174  0.00  0.00    +0.400 C 
ATOM     13  O   UNL     1     -11.432  14.148  65.859  0.00  0.00    -0.430 OA
BRANCH  12  17
ATOM     14  C   UNL     1      -9.474  10.227  63.548  0.00  0.00    +0.200 A 
ATOM     15  C   UNL     1     -10.058  11.382  63.042  0.00  0.00    -0.070 A 
ATOM     16  C   UNL     1     -10.410  12.403  63.887  0.00  0.00    +0.150 A 
ATOM     17  C   UNL     1     -10.181  12.280  65.264  0.00  0.00    -0.240 A 
ATOM     18  C   UNL     1      -9.593  11.113  65.768  0.00  0.00    +0.110 A 
ATOM     19  C   UNL     1      -9.249  10.096  64.915  0.00  0.00    -0.010 A 
BRANCH  14  20
ATOM     20  O   UNL     1      -9.128   9.220  62.708  0.00  0.00    -0.300 OA
BRANCH  20  22
ATOM     21  C   UNL     1      -9.542   8.418  60.466  0.00  0.00    +0.070 C 
ATOM     22  C   UNL     1      -8.978   9.551  61.326  0.00  0.00    +0.190 C 
ENDBRANCH  20  22
ENDBRANCH  14  20
ENDBRANCH  12  17
ENDBRANCH   1  12
BRANCH   1  23
ATOM     23  C   UNL     1      -8.728  14.514  67.359  0.00  0.00    +0.200 C 
ATOM     24  S   UNL     1      -7.712  14.745  68.571  0.00  0.00    -0.260 S 
BRANCH  23  25
ATOM     25  N   UNL     1      -8.579  15.206  66.213  0.00  0.00    -0.600 N 
ATOM     26  H   UNL     1      -8.584  14.742  65.361  0.00  0.00    +0.410 HD
BRANCH  25  27
ATOM     27  C   UNL     1      -8.415  16.595  66.251  0.00  0.00    +0.110 A 
ATOM     28  C   UNL     1      -7.147  17.148  66.126  0.00  0.00    +0.090 A 
ATOM     29  C   UNL     1      -6.988  18.521  66.162  0.00  0.00    -0.020 A 
ATOM     30  C   UNL     1      -8.090  19.343  66.325  0.00  0.00    +0.080 A 
ATOM     31  C   UNL     1      -9.353  18.793  66.450  0.00  0.00    -0.020 A 
ATOM     32 CL   UNL     1     -10.733  19.828  66.651  0.00  0.00    -0.030 Cl
ATOM     33 CL   UNL     1      -5.404  19.215  66.007  0.00  0.00    -0.030 Cl
ATOM     34  C   UNL     1      -9.519  17.421  66.408  0.00  0.00    +0.060 A 
ENDBRANCH  25  27
ENDBRANCH  23  25
ENDBRANCH   1  23
TORSDOF 8
ENDMDL
