MODEL 1
REMARK VINA RESULT:      -7.6      0.000      0.000
REMARK  Name = ZINC000015247650
REMARK  6 active torsions:
REMARK  status: ('A' for Active; 'I' for Inactive)
REMARK    1  A    between atoms: C2_2  and  C3_3
REMARK    2  A    between atoms: C2_2  and  C10_10
REMARK    3  A    between atoms: C10_10  and  C11_11
REMARK    4  A    between atoms: C10_10  and  N21_21
REMARK    5  A    between atoms: C11_11  and  N13_13
REMARK    6  A    between atoms: N13_13  and  C14_14
REMARK                            x       y       z     vdW  Elec       q    Type
REMARK                         _______ _______ _______ _____ _____    ______ ____
ROOT
ATOM      1  C   UNL     1     -11.354  15.175  67.616  0.00  0.00    +0.240 C 
ENDROOT
BRANCH   1   2
ATOM      2  N   UNL     1     -11.785  14.322  68.726  0.00  0.00    -0.330 N 
ATOM      3  C   UNL     1     -12.371  14.873  69.771  0.00  0.00    +0.370 A 
ATOM      4  C   UNL     1     -12.787  14.096  70.834  0.00  0.00    +0.060 A 
ATOM      5  C   UNL     1     -12.582  12.722  70.795  0.00  0.00    +0.060 A 
ATOM      6  C   UNL     1     -13.028  11.892  71.966  0.00  0.00    +0.110 C 
ATOM      7  C   UNL     1     -13.114  10.417  71.574  0.00  0.00    +0.040 C 
ATOM      8  C   UNL     1     -11.796  10.014  70.903  0.00  0.00    +0.040 C 
ATOM      9  C   UNL     1     -11.713  10.704  69.543  0.00  0.00    +0.110 C 
ATOM     10  C   UNL     1     -11.971  12.180  69.685  0.00  0.00    -0.080 A 
ATOM     11  C   UNL     1     -11.583  13.022  68.653  0.00  0.00    +0.320 A 
ENDBRANCH   1   2
BRANCH   1  13
ATOM     12  O   UNL     1      -9.077  14.914  68.181  0.00  0.00    -0.380 OA
ATOM     13  C   UNL     1      -9.963  15.688  67.888  0.00  0.00    +0.390 C 
BRANCH  13  14
ATOM     14  C   UNL     1      -9.679  17.129  67.794  0.00  0.00    -0.170 A 
ATOM     15  C   UNL     1     -10.530  17.967  67.065  0.00  0.00    +0.050 A 
ATOM     16  C   UNL     1     -10.257  19.316  66.980  0.00  0.00    +0.040 A 
ATOM     17  C   UNL     1      -9.145  19.842  67.614  0.00  0.00    +0.090 A 
ATOM     18  C   UNL     1      -8.297  19.020  68.338  0.00  0.00    -0.040 A 
ATOM     19 CL   UNL     1      -6.905  19.692  69.128  0.00  0.00    -0.030 Cl
ATOM     20  C   UNL     1      -8.560  17.669  68.437  0.00  0.00    +0.110 A 
ENDBRANCH  13  14
ENDBRANCH   1  13
BRANCH   1  21
ATOM     21  C   UNL     1     -11.353  14.376  66.339  0.00  0.00    +0.220 C 
ATOM     22  S   UNL     1     -12.737  14.002  65.629  0.00  0.00    -0.340 S 
BRANCH  21  23
ATOM     23  N   UNL     1     -10.187  13.975  65.794  0.00  0.00    -0.560 N 
ATOM     24  H   UNL     1      -9.425  14.576  65.783  0.00  0.00    +0.420 HD
BRANCH  23  25
ATOM     25  C   UNL     1     -10.075  12.695  65.243  0.00  0.00    +0.090 A 
ATOM     26  C   UNL     1     -10.190  12.515  63.871  0.00  0.00    +0.090 A 
ATOM     27  C   UNL     1     -10.079  11.249  63.330  0.00  0.00    +0.050 A 
ATOM     28  C   UNL     1      -9.854  10.161  64.152  0.00  0.00    +0.090 A 
ATOM     29  C   UNL     1      -9.740  10.336  65.521  0.00  0.00    -0.090 A 
ATOM     30 BR   UNL     1      -9.435   8.845  66.642  0.00  0.00    -0.020 Br
ATOM     31  C   UNL     1      -9.844  11.601  66.067  0.00  0.00    +0.060 A 
ENDBRANCH  23  25
ENDBRANCH  21  23
ENDBRANCH   1  21
TORSDOF 6
ENDMDL
