@<TRIPOS>MOLECULE
ZINC000022733112
58    61    1     0     0
SMALL
USER_CHARGES
@<TRIPOS>ATOM
1      C1     -4.2249   -4.4171   -4.4771 C.3      1 ZINC000022733112   -0.1600
2      C2     -3.2350   -5.2332   -3.6434 C.3      1 ZINC000022733112    0.0500
3      O3     -2.8865   -4.5013   -2.4666 O.3      1 ZINC000022733112   -0.3000
4      C4     -2.0111   -5.0886   -1.6127 C.ar     1 ZINC000022733112    0.2000
5      C5     -1.4931   -6.3453   -1.9072 C.ar     1 ZINC000022733112   -0.2200
6      C6     -0.6079   -6.9432   -1.0475 C.ar     1 ZINC000022733112    0.0100
7      C7     -0.2253   -6.2861    0.1285 C.ar     1 ZINC000022733112   -0.2400
8      C8      0.7227   -6.9216    1.0526 C.2      1 ZINC000022733112    0.4000
9      O9      1.1758   -8.0176    0.7979 O.2      1 ZINC000022733112   -0.4300
10     C10     1.1327   -6.2122    2.3174 C.3      1 ZINC000022733112    0.0600
11     C11     0.1874   -6.5837    3.4308 C.2      1 ZINC000022733112    0.2000
12     S12    -0.3855   -5.4520    4.4042 S.2      1 ZINC000022733112   -0.2600
13     N13    -0.1750   -7.8700    3.6059 N.am     1 ZINC000022733112   -0.6000
14     C14    -1.1456   -8.1996    4.5571 C.ar     1 ZINC000022733112    0.1100
15     C15    -0.9764   -7.8227    5.8831 C.ar     1 ZINC000022733112   -0.0600
16     C16    -1.9376   -8.1494    6.8212 C.ar     1 ZINC000022733112   -0.0200
17     Cl17   -1.7269   -7.6787    8.4788 Cl       1 ZINC000022733112   -0.0300
18     C18    -3.0680   -8.8509    6.4401 C.ar     1 ZINC000022733112   -0.0800
19     C19    -3.2391   -9.2276    5.1196 C.ar     1 ZINC000022733112   -0.0200
20     Cl20   -4.6588  -10.1071    4.6457 Cl       1 ZINC000022733112   -0.0300
21     C21    -2.2833   -8.8993    4.1765 C.ar     1 ZINC000022733112   -0.0900
22     N22     2.4952   -6.6096    2.6806 N.ar     1 ZINC000022733112   -0.3300
23     C23     2.7320   -7.8634    3.0130 C.ar     1 ZINC000022733112    0.1200
24     C24     4.0048   -8.2692    3.3629 C.ar     1 ZINC000022733112   -0.1100
25     C25     5.0398   -7.3409    3.3621 C.ar     1 ZINC000022733112    0.0500
26     C26     6.4172   -7.7949    3.7583 C.3      1 ZINC000022733112   -0.1100
27     C27     7.4663   -6.7843    3.2961 C.3      1 ZINC000022733112   -0.1300
28     C28     7.0372   -5.3893    3.7652 C.3      1 ZINC000022733112   -0.1300
29     C29     5.8077   -4.9644    2.9636 C.3      1 ZINC000022733112   -0.0900
30     C30     4.7562   -6.0400    3.0040 C.ar     1 ZINC000022733112   -0.0700
31     C31     3.4539   -5.7068    2.6617 C.ar     1 ZINC000022733112    0.1300
32     C32    -0.7495   -5.0207    0.4200 C.ar     1 ZINC000022733112   -0.0300
33     C33    -1.6303   -4.4294   -0.4488 C.ar     1 ZINC000022733112   -0.1600
34     H34    -3.7664   -3.4698   -4.7609 H        1 ZINC000022733112    0.0700
35     H35    -4.4907   -4.9754   -5.3748 H        1 ZINC000022733112    0.0900
36     H36    -5.1227   -4.2248   -3.8897 H        1 ZINC000022733112    0.0700
37     H37    -3.6935   -6.1805   -3.3596 H        1 ZINC000022733112    0.0700
38     H38    -2.3372   -5.4256   -4.2308 H        1 ZINC000022733112    0.0700
39     H39    -1.7888   -6.8512   -2.8144 H        1 ZINC000022733112    0.1500
40     H40    -0.2068   -7.9194   -1.2767 H        1 ZINC000022733112    0.1400
41     H41     1.0991   -5.1346    2.1568 H        1 ZINC000022733112    0.1900
42     H42     0.2374   -8.5671    3.0722 H        1 ZINC000022733112    0.4100
43     H43    -0.0944   -7.2752    6.1810 H        1 ZINC000022733112    0.1500
44     H44    -3.8178   -9.1051    7.1747 H        1 ZINC000022733112    0.1600
45     H45    -2.4173   -9.1936    3.1460 H        1 ZINC000022733112    0.1500
46     H46     1.9234   -8.5793    3.0119 H        1 ZINC000022733112    0.1900
47     H47     4.1942   -9.2971    3.6348 H        1 ZINC000022733112    0.1900
48     H48     6.4658   -7.8943    4.8427 H        1 ZINC000022733112    0.1100
49     H49     6.6231   -8.7627    3.3011 H        1 ZINC000022733112    0.1100
50     H50     8.4336   -7.0355    3.7312 H        1 ZINC000022733112    0.0900
51     H51     7.5355   -6.7997    2.2084 H        1 ZINC000022733112    0.0800
52     H52     6.7898   -5.4198    4.8264 H        1 ZINC000022733112    0.0800
53     H53     7.8477   -4.6805    3.5956 H        1 ZINC000022733112    0.0900
54     H54     5.4006   -4.0465    3.3875 H        1 ZINC000022733112    0.1000
55     H55     6.0974   -4.7824    1.9287 H        1 ZINC000022733112    0.1100
56     H56     3.2217   -4.6905    2.3794 H        1 ZINC000022733112    0.2100
57     H57    -0.4579   -4.5099    1.3258 H        1 ZINC000022733112    0.1400
58     H58    -2.0349   -3.4533   -0.2251 H        1 ZINC000022733112    0.1500
@<TRIPOS>BOND
1     1     2     1
2     1     34    1
3     1     35    1
4     1     36    1
5     2     3     1
6     2     37    1
7     2     38    1
8     3     4     1
9     4     33    ar
10    4     5     ar
11    5     6     ar
12    5     39    1
13    6     7     ar
14    6     40    1
15    7     8     1
16    7     32    ar
17    8     9     2
18    8     10    1
19    10    11    1
20    10    22    1
21    10    41    1
22    11    12    2
23    11    13    am
24    13    14    1
25    13    42    1
26    14    21    ar
27    14    15    ar
28    15    16    ar
29    15    43    1
30    16    17    1
31    16    18    ar
32    18    19    ar
33    18    44    1
34    19    20    1
35    19    21    ar
36    21    45    1
37    22    31    ar
38    22    23    ar
39    23    24    ar
40    23    46    1
41    24    25    ar
42    24    47    1
43    25    30    ar
44    25    26    1
45    26    27    1
46    26    48    1
47    26    49    1
48    27    28    1
49    27    50    1
50    27    51    1
51    28    29    1
52    28    52    1
53    28    53    1
54    29    30    1
55    29    54    1
56    29    55    1
57    30    31    ar
58    31    56    1
59    32    33    ar
60    32    57    1
61    33    58    1
@<TRIPOS>SUBSTRUCTURE
1   ZINC000022733112 1     RESIDUE    1   A     ZIN   1
