@<TRIPOS>MOLECULE
ZINC000027310962
70    72    1     0     0
SMALL
USER_CHARGES
@<TRIPOS>ATOM
1      C1      1.9850   -5.0818   -1.7127 C.2      1 ZINC000027310962   -0.1400
2      C2      3.0043   -4.2861   -1.5024 C.2      1 ZINC000027310962   -0.1600
3      C3      4.3729   -4.6654   -2.0064 C.3      1 ZINC000027310962   -0.1200
4      C4      2.8081   -2.9915   -0.7564 C.3      1 ZINC000027310962    0.1400
5      N5      3.1203   -3.1923    0.6608 N.am     1 ZINC000027310962   -0.6300
6      C6      3.0149   -2.1646    1.5263 C.2      1 ZINC000027310962    0.2000
7      S7      2.6619   -0.7003    0.9895 S.2      1 ZINC000027310962   -0.3100
8      C8      3.2296   -2.3954    2.9999 C.3      1 ZINC000027310962    0.0500
9      C9      3.2377   -1.0715    3.7198 C.2      1 ZINC000027310962    0.4300
10     O10     2.2199   -0.6518    4.2289 O.2      1 ZINC000027310962   -0.4200
11     C11     4.4778   -0.2897    3.8051 C.ar     1 ZINC000027310962   -0.1900
12     C12     5.6528   -0.7697    3.2131 C.ar     1 ZINC000027310962   -0.0500
13     C13     6.8081   -0.0364    3.2952 C.ar     1 ZINC000027310962   -0.1300
14     C14     6.8147    1.1834    3.9661 C.ar     1 ZINC000027310962    0.2100
15     N15     7.9913    1.9251    4.0470 N.am     1 ZINC000027310962   -0.6700
16     C16     8.8737    1.9022    3.0286 C.2      1 ZINC000027310962    0.5300
17     O17     8.6027    1.3117    2.0046 O.2      1 ZINC000027310962   -0.5100
18     C18    10.1973    2.6101    3.1624 C.3      1 ZINC000027310962   -0.0800
19     C19    11.0044    2.4301    1.8751 C.3      1 ZINC000027310962   -0.1300
20     C20     9.9558    4.1008    3.4086 C.3      1 ZINC000027310962   -0.1500
21     C21    10.9756    2.0184    4.3393 C.3      1 ZINC000027310962   -0.1400
22     C22     5.6491    1.6645    4.5561 C.ar     1 ZINC000027310962   -0.1600
23     C23     4.4877    0.9410    4.4736 C.ar     1 ZINC000027310962   -0.0100
24     N24     2.1472   -3.2308    3.5261 N.ar     1 ZINC000027310962   -0.3400
25     C25     0.8967   -2.8716    3.3117 C.ar     1 ZINC000027310962    0.1500
26     C26    -0.1504   -3.6349    3.7924 C.ar     1 ZINC000027310962   -0.1200
27     C27     0.1279   -4.7899    4.5071 C.ar     1 ZINC000027310962    0.0600
28     C28    -0.9855   -5.6498    5.0475 C.3      1 ZINC000027310962   -0.0600
29     C29    -1.3642   -6.6854    4.0203 C.ar     1 ZINC000027310962   -0.1000
30     C30    -2.3408   -6.4044    3.0831 C.ar     1 ZINC000027310962   -0.1100
31     C31    -2.6882   -7.3542    2.1408 C.ar     1 ZINC000027310962   -0.1100
32     C32    -2.0588   -8.5850    2.1354 C.ar     1 ZINC000027310962   -0.1100
33     C33    -1.0817   -8.8657    3.0721 C.ar     1 ZINC000027310962   -0.1100
34     C34    -0.7312   -7.9142    4.0117 C.ar     1 ZINC000027310962   -0.1100
35     C35     1.4549   -5.1353    4.7123 C.ar     1 ZINC000027310962   -0.1200
36     C36     2.4491   -4.3252    4.1971 C.ar     1 ZINC000027310962    0.1200
37     H37     1.0042   -4.8099   -1.3515 H        1 ZINC000027310962    0.1000
38     H38     2.1248   -6.0075   -2.2512 H        1 ZINC000027310962    0.1100
39     H39     4.5097   -4.2751   -3.0149 H        1 ZINC000027310962    0.0800
40     H40     5.1323   -4.2443   -1.3477 H        1 ZINC000027310962    0.0600
41     H41     4.4665   -5.7513   -2.0213 H        1 ZINC000027310962    0.0700
42     H42     3.4696   -2.2301   -1.1698 H        1 ZINC000027310962    0.1100
43     H43     1.7725   -2.6670   -0.8579 H        1 ZINC000027310962    0.1000
44     H44     3.4029   -4.0650    0.9762 H        1 ZINC000027310962    0.4000
45     H45     4.1843   -2.8984    3.1536 H        1 ZINC000027310962    0.1700
46     H46     5.6488   -1.7162    2.6930 H        1 ZINC000027310962    0.1200
47     H47     7.7147   -0.4058    2.8390 H        1 ZINC000027310962    0.1500
48     H48     8.1753    2.4581    4.8363 H        1 ZINC000027310962    0.4200
49     H49    10.4500    2.8516    1.0367 H        1 ZINC000027310962    0.0700
50     H50    11.9618    2.9421    1.9719 H        1 ZINC000027310962    0.0700
51     H51    11.1765    1.3681    1.6997 H        1 ZINC000027310962    0.0600
52     H52     9.3808    4.2290    4.3257 H        1 ZINC000027310962    0.0600
53     H53    10.9131    4.6128    3.5054 H        1 ZINC000027310962    0.0800
54     H54     9.4014    4.5223    2.5702 H        1 ZINC000027310962    0.0700
55     H55    11.1477    0.9564    4.1639 H        1 ZINC000027310962    0.0600
56     H56    11.9329    2.5305    4.4360 H        1 ZINC000027310962    0.0800
57     H57    10.4006    2.1467    5.2564 H        1 ZINC000027310962    0.0600
58     H58     5.6589    2.6113    5.0755 H        1 ZINC000027310962    0.1400
59     H59     3.5839    1.3149    4.9316 H        1 ZINC000027310962    0.1400
60     H60     0.6883   -1.9703    2.7544 H        1 ZINC000027310962    0.2000
61     H61    -1.1725   -3.3353    3.6138 H        1 ZINC000027310962    0.1900
62     H62    -0.6514   -6.1468    5.9583 H        1 ZINC000027310962    0.1100
63     H63    -1.8509   -5.0258    5.2706 H        1 ZINC000027310962    0.1100
64     H64    -2.8325   -5.4428    3.0872 H        1 ZINC000027310962    0.1200
65     H65    -3.4516   -7.1349    1.4090 H        1 ZINC000027310962    0.1300
66     H66    -2.3308   -9.3274    1.3997 H        1 ZINC000027310962    0.1300
67     H67    -0.5902   -9.8274    3.0681 H        1 ZINC000027310962    0.1300
68     H68     0.0322   -8.1335    4.7434 H        1 ZINC000027310962    0.1200
69     H69     1.7085   -6.0279    5.2649 H        1 ZINC000027310962    0.1900
70     H70     3.4852   -4.5872    4.3526 H        1 ZINC000027310962    0.2100
@<TRIPOS>BOND
1     1     2     2
2     1     37    1
3     1     38    1
4     2     3     1
5     2     4     1
6     3     39    1
7     3     40    1
8     3     41    1
9     4     5     1
10    4     42    1
11    4     43    1
12    5     6     am
13    5     44    1
14    6     7     2
15    6     8     1
16    8     9     1
17    8     24    1
18    8     45    1
19    9     10    2
20    9     11    1
21    11    23    ar
22    11    12    ar
23    12    13    ar
24    12    46    1
25    13    14    ar
26    13    47    1
27    14    15    1
28    14    22    ar
29    15    16    am
30    15    48    1
31    16    17    2
32    16    18    1
33    18    19    1
34    18    20    1
35    18    21    1
36    19    49    1
37    19    50    1
38    19    51    1
39    20    52    1
40    20    53    1
41    20    54    1
42    21    55    1
43    21    56    1
44    21    57    1
45    22    23    ar
46    22    58    1
47    23    59    1
48    24    36    ar
49    24    25    ar
50    25    26    ar
51    25    60    1
52    26    27    ar
53    26    61    1
54    27    28    1
55    27    35    ar
56    28    29    1
57    28    62    1
58    28    63    1
59    29    34    ar
60    29    30    ar
61    30    31    ar
62    30    64    1
63    31    32    ar
64    31    65    1
65    32    33    ar
66    32    66    1
67    33    34    ar
68    33    67    1
69    34    68    1
70    35    36    ar
71    35    69    1
72    36    70    1
@<TRIPOS>SUBSTRUCTURE
1   ZINC000027310962 1     RESIDUE    1   A     ZIN   1
