MODEL 1
REMARK VINA RESULT:      -7.7      0.000      0.000
REMARK  Name = ZINC000015247565
REMARK  6 active torsions:
REMARK  status: ('A' for Active; 'I' for Inactive)
REMARK    1  A    between atoms: C2_2  and  C3_3
REMARK    2  A    between atoms: C2_2  and  C10_10
REMARK    3  A    between atoms: C10_10  and  C11_11
REMARK    4  A    between atoms: C10_10  and  N21_21
REMARK    5  A    between atoms: C11_11  and  N13_13
REMARK    6  A    between atoms: N13_13  and  C14_14
REMARK                            x       y       z     vdW  Elec       q    Type
REMARK                         _______ _______ _______ _____ _____    ______ ____
ROOT
ATOM      1  C   UNL     1      -9.985  13.086  67.503  0.00  0.00    +0.240 C 
ENDROOT
BRANCH   1   2
ATOM      2  N   UNL     1     -10.874  13.062  68.667  0.00  0.00    -0.330 N 
ATOM      3  C   UNL     1     -11.252  11.900  69.164  0.00  0.00    +0.370 A 
ATOM      4  C   UNL     1     -12.091  11.844  70.258  0.00  0.00    +0.060 A 
ATOM      5  C   UNL     1     -12.537  13.028  70.836  0.00  0.00    +0.060 A 
ATOM      6  C   UNL     1     -13.461  12.950  72.020  0.00  0.00    +0.110 C 
ATOM      7  C   UNL     1     -13.495  14.287  72.759  0.00  0.00    +0.040 C 
ATOM      8  C   UNL     1     -13.768  15.400  71.741  0.00  0.00    +0.040 C 
ATOM      9  C   UNL     1     -12.537  15.557  70.852  0.00  0.00    +0.110 C 
ATOM     10  C   UNL     1     -12.118  14.224  70.294  0.00  0.00    -0.080 A 
ATOM     11  C   UNL     1     -11.271  14.202  69.195  0.00  0.00    +0.310 A 
ENDBRANCH   1   2
BRANCH   1  13
ATOM     12  O   UNL     1     -11.825  13.493  66.083  0.00  0.00    -0.380 OA
ATOM     13  C   UNL     1     -10.793  12.877  66.248  0.00  0.00    +0.390 C 
BRANCH  13  14
ATOM     14  C   UNL     1     -10.329  11.930  65.223  0.00  0.00    -0.180 A 
ATOM     15  C   UNL     1      -9.858  10.667  65.595  0.00  0.00    +0.060 A 
ATOM     16  C   UNL     1      -9.424   9.785  64.629  0.00  0.00    +0.040 A 
ATOM     17  C   UNL     1      -9.454  10.148  63.292  0.00  0.00    +0.010 A 
ATOM     18  C   UNL     1      -9.919  11.397  62.916  0.00  0.00    +0.040 A 
ATOM     19 CL   UNL     1      -8.906   9.030  62.082  0.00  0.00    -0.030 Cl
ATOM     20  C   UNL     1     -10.361  12.287  63.871  0.00  0.00    +0.120 A 
ENDBRANCH  13  14
ENDBRANCH   1  13
BRANCH   1  21
ATOM     21  C   UNL     1      -9.284  14.418  67.433  0.00  0.00    +0.220 C 
ATOM     22  S   UNL     1      -8.141  14.776  68.493  0.00  0.00    -0.340 S 
BRANCH  21  23
ATOM     23  N   UNL     1      -9.619  15.307  66.476  0.00  0.00    -0.560 N 
ATOM     24  H   UNL     1      -9.902  14.996  65.603  0.00  0.00    +0.420 HD
BRANCH  23  25
ATOM     25  C   UNL     1      -9.559  16.678  66.745  0.00  0.00    +0.090 A 
ATOM     26  C   UNL     1     -10.546  17.280  67.515  0.00  0.00    +0.090 A 
ATOM     27  C   UNL     1     -10.484  18.634  67.779  0.00  0.00    +0.050 A 
ATOM     28  C   UNL     1      -9.442  19.391  67.278  0.00  0.00    +0.090 A 
ATOM     29  C   UNL     1      -8.457  18.796  66.509  0.00  0.00    -0.090 A 
ATOM     30 BR   UNL     1      -7.034  19.835  65.824  0.00  0.00    -0.020 Br
ATOM     31  C   UNL     1      -8.510  17.440  66.246  0.00  0.00    +0.060 A 
ENDBRANCH  23  25
ENDBRANCH  21  23
ENDBRANCH   1  21
TORSDOF 6
ENDMDL
