@<TRIPOS>MOLECULE
BEQXRJFDXZCPLY-GRQBKTHUSA-O
   44    44     1     1     1
SMALL
USER_CHARGES


@<TRIPOS>ATOM
      1 N1        -32.0820    1.6940  -39.7040 N.ar       0 <0>       -0.066
      2 C7        -33.1720    1.0560  -39.3210 C.ar       0 <0>       -0.037
      3 C8        -32.8920    0.1390  -38.2720 C.ar       0 <0>       -0.045
      4 C9        -31.5540    0.2510  -38.0390 C.ar       0 <0>       -0.121
      5 N2        -31.0790    1.2090  -38.9330 N.ar       0 <0>       -0.121
      6 H7        -34.1511    1.2109  -39.7497 H          0 <0>        0.000
      7 O         -30.1110    5.3055  -39.1851 O.3        0 <0>       -0.205
      8 N         -30.2829    3.9954  -38.5895 N.4        0 <0>       -0.261
      9 C         -29.5454    3.0945  -39.4873 C.3        0 <0>       -0.345
     10 C         -29.6471    1.6453  -39.0288 C.3        0 <0>       -0.243
     11 O         -29.5499    3.9930  -37.3340 O.3        0 <0>       -0.370
     12 O         -31.4104    5.8543  -39.4769 O.3        0 <0>       -0.225
     13 H         -29.9738    3.1646  -40.4946 H          0 <0>        0.000
     14 H         -29.1759    1.4957  -38.0521 H          0 <0>        0.000
     15 H         -29.1435    0.9894  -39.7463 H          0 <0>        0.000
     16 H         -31.8620    5.3398  -38.7875 H          0 <0>        0.000
     17 O         -30.3045    4.5932  -35.0130 O.3        0 <0>       -0.160
     18 N         -28.9482    4.7637  -35.3082 N.am       0 <0>       -0.409
     19 C         -28.5460    4.2424  -36.4980 C.2        0 <0>       -0.564
     20 O         -27.3748    4.0454  -36.7952 O.2        0 <0>       -0.432
     21 O         -30.4814    4.5042  -33.5833 O.3        0 <0>       -0.004
     22 H         -28.3062    4.7479  -34.5270 H          0 <0>        0.000
     23 H         -30.9655    5.3436  -33.4891 H          0 <0>        0.000
     24 N         -30.1637   -1.0615  -36.2770 N.1        0 <0>       -0.247
     25 C         -30.7840   -0.4759  -37.0631 C.1        0 <0>       -0.213
     26 O         -34.1926   -0.3401  -36.3162 O.3        0 <0>       -0.028
     27 N         -33.8094   -0.7116  -37.6088 N.am       0 <0>       -0.024
     28 C         -33.7363   -2.0519  -37.8269 C.2        0 <0>       -0.020
     29 O         -33.1599   -2.5570  -38.7817 O.2        0 <0>       -0.016
     30 O         -33.5872    0.9254  -35.9767 O.3        0 <0>       -0.060
     31 H         -34.4188    1.4310  -35.9497 H          0 <0>        0.000
     32 O         -36.2189   -1.8964  -38.2154 O.3        0 <0>       -0.002
     33 S         -35.7656   -3.2845  -37.5445 S.3        0 <0>       -0.003
     34 O         -34.3833   -2.7733  -36.9160 O.3        0 <0>       -0.012
     35 O         -36.6001   -3.1597  -36.1843 O.3        0 <0>       -0.002
     36 S         -37.2381   -2.1728  -39.4980 S.3        0 <0>       -0.000
     37 H         -35.9548   -3.0881  -35.4419 H          0 <0>        0.000
     38 H         -38.3836   -2.2367  -38.8016 H          0 <0>        0.000
     39 O         -27.2780    2.5102  -38.9351 O.3        0 <0>       -0.252
     40 C         -28.0747    3.5514  -39.4856 C.3        0 <0>       -0.125
     41 O         -25.9127    3.0121  -38.9667 O.3        0 <0>       -0.046
     42 H         -27.7648    3.7569  -40.5143 H          0 <0>        0.000
     43 H         -27.9838    4.4554  -38.8765 H          0 <0>        0.000
     44 H         -25.5026    2.2205  -38.5742 H          0 <0>        0.000
@<TRIPOS>BOND
     1    2    1 ar 
     2    2    3 ar 
     3    3    4 ar 
     4    4    5 ar 
     5    1    5 ar 
     6    6    2 1  
     7    7    8 1  
     8    8    9 1  
     9    9   10 1  
    10    8   11 1  
    11    7   12 1  
    12    9   13 1  
    13   10   14 1  
    14   10   15 1  
    15   12   16 1  
    16    5   10 1  
    17   17   18 1  
    18   18   19 am 
    19   19   20 2  
    20   17   21 1  
    21   18   22 1  
    22   21   23 1  
    23   11   19 1  
    24   24   25 3  
    25    4   25 1  
    26   26   27 1  
    27   27   28 am 
    28   28   29 2  
    29   26   30 1  
    30   30   31 1  
    31    3   27 1  
    32   32   33 1  
    33   33   34 1  
    34   33   35 1  
    35   32   36 1  
    36   35   37 1  
    37   36   38 1  
    38   28   34 1  
    39   39   40 1  
    40   39   41 1  
    41   40   42 1  
    42   40   43 1  
    43   41   44 1  
    44    9   40 1  
