#        Name: CDKMolecule

@<TRIPOS>MOLECULE
CDKMolecule
7 7
SMALL
NO CHARGES
@<TRIPOS>ATOM
1 C1 -1.283 0.2707 -2.9433 C.ar
2 C2 -1.1957 1.6404 -3.1054 C.ar
3 C3 -2.3275 2.3738 -3.4136 C.ar
4 C4 -3.5479 1.7372 -3.549 C.ar
5 C5 -3.6353 0.3678 -3.3811 C.ar
6 C6 -2.5032 -0.3652 -3.0783 C.ar
7 Br7 -2.2072 4.2468 -3.6439 Br
@<TRIPOS>BOND
1 1 2 ar
2 3 2 ar
3 4 3 ar
4 5 4 ar
5 6 5 ar
6 1 6 ar
7 3 7 1
