#        Name: CDKMolecule

@<TRIPOS>MOLECULE
CDKMolecule
7 7
SMALL
NO CHARGES
@<TRIPOS>ATOM
1 C1 0.4925 -7.7476 -3.7344 C.ar
2 C2 -0.0346 -6.5206 -4.1323 C.ar
3 N3 0.0603 -5.4089 -3.2873 N.3
4 C4 -0.6486 -6.4025 -5.371 C.ar
5 C5 -0.7405 -7.5016 -6.2037 C.ar
6 C6 -0.2219 -8.7201 -5.8059 C.ar
7 C7 0.3914 -8.8455 -4.573 C.ar
@<TRIPOS>BOND
1 2 1 ar
2 3 2 1
3 2 4 ar
4 4 5 ar
5 5 6 ar
6 6 7 ar
7 7 1 ar
