#        Name: CDKMolecule

@<TRIPOS>MOLECULE
CDKMolecule
6 5
SMALL
NO CHARGES
@<TRIPOS>ATOM
1 O1 1.0999 -7.8682 -2.5238 O.3
2 C2 1.6168 -9.156 -2.1827 C.3
3 H3 1.4237508249535176 -7.178434536868939 -1.8014121200847018 H
4 H4 2.2023550226589936 -9.061228511359104 -1.2682363974549813 H
5 H5 0.7777468386914382 -9.834761532383103 -2.0298190834176744 H
6 H6 2.244348673781867 -9.503916087314819 -3.003210242606494 H
@<TRIPOS>BOND
1 1 2 1
2 1 3 1
3 2 4 1
4 2 5 1
5 2 6 1
