#        Name: CDKMolecule

@<TRIPOS>MOLECULE
CDKMolecule
12 12
SMALL
NO CHARGES
@<TRIPOS>ATOM
1 C1 -0.0156 -3.2383 1.4886 C.ar
2 C2 0.6657 -3.1924 2.6979 C.ar
3 C3 0.6773 -4.2987 3.5247 C.ar
4 C4 0.0214 -5.455 3.144 C.ar
5 C5 -0.6532 -5.5058 1.9379 C.ar
6 C6 -0.6737 -4.4009 1.1095 C.ar
7 H7 -0.033770769062270445 -2.3636750943173497 0.8383684277803017 H
8 H8 1.1921879058804836 -2.2865923769516296 2.9986042317444905 H
9 H9 1.2042913700039626 -4.259224991010939 4.478021467085821 H
10 H10 0.03617275257363579 -6.328330372735531 3.7960550788384504 H
11 H11 -1.1696074497532796 -6.418217198715586 1.6397084485983584 H
12 H12 -1.2072520883961584 -4.446266866343145 0.16009807436138945 H
@<TRIPOS>BOND
1 1 2 ar
2 3 2 ar
3 4 3 ar
4 5 4 ar
5 6 5 ar
6 1 6 ar
7 1 7 1
8 2 8 1
9 3 9 1
10 4 10 1
11 5 11 1
12 6 12 1
