#        Name: CDKMolecule

@<TRIPOS>MOLECULE
CDKMolecule
12 13
SMALL
NO CHARGES
@<TRIPOS>ATOM
1 C1 1.2581 3.0647 0.2579 C.3
2 C2 1.8986 1.7012 0.2161 C.2
3 C3 3.2772 1.5802 -0.0614 C.ar
4 N4 3.8851 0.3818 -0.1069 N.am
5 C5 3.1786 -0.7807 0.1166 C.ar
6 C6 1.8008 -0.7147 0.3967 C.ar
7 C7 1.1483 0.5951 0.4445 C.2
8 C8 1.079 -1.8914 0.6234 C.ar
9 C9 1.7176 -3.0978 0.5725 C.ar
10 C10 3.0764 -3.167 0.2961 C.ar
11 C11 3.8072 -2.0209 0.0691 C.ar
12 O12 3.933 2.5872 -0.2645 O.2
@<TRIPOS>BOND
1 1 2 1
2 2 3 1
3 4 3 ar
4 5 4 1
5 6 5 ar
6 7 6 1
7 2 7 2
8 6 8 ar
9 8 9 ar
10 9 10 ar
11 10 11 ar
12 11 5 ar
13 3 12 2
