@<TRIPOS>MOLECULE
ZINC000027310962
70    72    1     0     0
SMALL
USER_CHARGES
@<TRIPOS>ATOM
1      C1      1.9850   -5.0818   -1.7127 C.2      1 ZINC000027310962   -0.1400
2      C2      3.0043   -4.2861   -1.5024 C.2      1 ZINC000027310962   -0.1600
3      C3      4.3729   -4.6654   -2.0064 C.3      1 ZINC000027310962   -0.1200
4      C4      2.8081   -2.9915   -0.7564 C.3      1 ZINC000027310962    0.1400
5      N5      3.1203   -3.1923    0.6608 N.am     1 ZINC000027310962   -0.6300
6      C6      3.0149   -2.1646    1.5263 C.2      1 ZINC000027310962    0.2000
7      S7      2.6619   -0.7003    0.9895 S.2      1 ZINC000027310962   -0.3100
8      C8      3.2296   -2.3954    2.9999 C.3      1 ZINC000027310962    0.0500
9      C9      3.2377   -1.0715    3.7198 C.2      1 ZINC000027310962    0.4300
10     O10     2.2199   -0.6518    4.2289 O.2      1 ZINC000027310962   -0.4200
11     C11     4.4778   -0.2897    3.8051 C.ar     1 ZINC000027310962   -0.1900
12     C12     5.6528   -0.7697    3.2131 C.ar     1 ZINC000027310962   -0.0500
13     C13     6.8081   -0.0364    3.2952 C.ar     1 ZINC000027310962   -0.1300
14     C14     6.8147    1.1834    3.9661 C.ar     1 ZINC000027310962    0.2100
15     N15     7.9913    1.9251    4.0470 N.am     1 ZINC000027310962   -0.6700
16     C16     8.8737    1.9022    3.0286 C.2      1 ZINC000027310962    0.5300
17     O17     8.6027    1.3117    2.0046 O.2      1 ZINC000027310962   -0.5100
18     C18    10.1973    2.6101    3.1624 C.3      1 ZINC000027310962   -0.0800
19     C19    11.0044    2.4301    1.8751 C.3      1 ZINC000027310962   -0.1300
20     C20     9.9558    4.1008    3.4086 C.3      1 ZINC000027310962   -0.1500
21     C21    10.9756    2.0184    4.3393 C.3      1 ZINC000027310962   -0.1400
22     C22     5.6491    1.6645    4.5561 C.ar     1 ZINC000027310962   -0.1600
23     C23     4.4877    0.9410    4.4736 C.ar     1 ZINC000027310962   -0.0100
24     N24     2.1472   -3.2308    3.5261 N.ar     1 ZINC000027310962   -0.3400
25     C25     0.8967   -2.8716    3.3117 C.ar     1 ZINC000027310962    0.1500
26     C26    -0.1504   -3.6349    3.7924 C.ar     1 ZINC000027310962   -0.1200
27     C27     0.1279   -4.7899    4.5071 C.ar     1 ZINC000027310962    0.0600
28     C28    -0.9855   -5.6498    5.0475 C.3      1 ZINC000027310962   -0.0600
29     C29    -1.3642   -6.6854    4.0203 C.ar     1 ZINC000027310962   -0.1000
30     C30    -2.3408   -6.4044    3.0831 C.ar     1 ZINC000027310962   -0.1100
31     C31    -2.6882   -7.3542    2.1408 C.ar     1 ZINC000027310962   -0.1100
32     C32    -2.0588   -8.5850    2.1354 C.ar     1 ZINC000027310962   -0.1100
33     C33    -1.0817   -8.8657    3.0721 C.ar     1 ZINC000027310962   -0.1100
34     C34    -0.7312   -7.9142    4.0117 C.ar     1 ZINC000027310962   -0.1100
35     C35     1.4549   -5.1353    4.7123 C.ar     1 ZINC000027310962   -0.1200
36     C36     2.4491   -4.3252    4.1971 C.ar     1 ZINC000027310962    0.1200
37     H37     1.0042   -4.8099   -1.3515 H        1 ZINC000027310962    0.1000
38     H38     2.1248   -6.0075   -2.2512 H        1 ZINC000027310962    0.1100
39     H39     4.5097   -4.2751   -3.0149 H        1 ZINC000027310962    0.0800
40     H40     5.1323   -4.2443   -1.3477 H        1 ZINC000027310962    0.0600
41     H41     4.4665   -5.7513   -2.0213 H        1 ZINC000027310962    0.0700
42     H42     3.4696   -2.2301   -1.1698 H        1 ZINC000027310962    0.1100
43     H43     1.7725   -2.6670   -0.8579 H        1 ZINC000027310962    0.1000
44     H44     3.4029   -4.0650    0.9762 H        1 ZINC000027310962    0.4000
45     H45     4.1843   -2.8984    3.1536 H        1 ZINC000027310962    0.1700
46     H46     5.6488   -1.7162    2.6930 H        1 ZINC000027310962    0.1200
47     H47     7.7147   -0.4058    2.8390 H        1 ZINC000027310962    0.1500
48     H48     8.1753    2.4581    4.8363 H        1 ZINC000027310962    0.4200
49     H49    10.4500    2.8516    1.0367 H        1 ZINC000027310962    0.0700
50     H50    11.9618    2.9421    1.9719 H        1 ZINC000027310962    0.0700
51     H51    11.1765    1.3681    1.6997 H        1 ZINC000027310962    0.0600
52     H52     9.3808    4.2290    4.3257 H        1 ZINC000027310962    0.0600
53     H53    10.9131    4.6128    3.5054 H        1 ZINC000027310962    0.0800
54     H54     9.4014    4.5223    2.5702 H        1 ZINC000027310962    0.0700
55     H55    11.1477    0.9564    4.1639 H        1 ZINC000027310962    0.0600
56     H56    11.9329    2.5305    4.4360 H        1 ZINC000027310962    0.0800
57     H57    10.4006    2.1467    5.2564 H        1 ZINC000027310962    0.0600
58     H58     5.6589    2.6113    5.0755 H        1 ZINC000027310962    0.1400
59     H59     3.5839    1.3149    4.9316 H        1 ZINC000027310962    0.1400
60     H60     0.6883   -1.9703    2.7544 H        1 ZINC000027310962    0.2000
61     H61    -1.1725   -3.3353    3.6138 H        1 ZINC000027310962    0.1900
62     H62    -0.6514   -6.1468    5.9583 H        1 ZINC000027310962    0.1100
63     H63    -1.8509   -5.0258    5.2706 H        1 ZINC000027310962    0.1100
64     H64    -2.8325   -5.4428    3.0872 H        1 ZINC000027310962    0.1200
65     H65    -3.4516   -7.1349    1.4090 H        1 ZINC000027310962    0.1300
66     H66    -2.3308   -9.3274    1.3997 H        1 ZINC000027310962    0.1300
67     H67    -0.5902   -9.8274    3.0681 H        1 ZINC000027310962    0.1300
68     H68     0.0322   -8.1335    4.7434 H        1 ZINC000027310962    0.1200
69     H69     1.7085   -6.0279    5.2649 H        1 ZINC000027310962    0.1900
70     H70     3.4852   -4.5872    4.3526 H        1 ZINC000027310962    0.2100
@<TRIPOS>BOND
1     1     2     2
2     1     37    1
3     1     38    1
4     2     3     1
5     2     4     1
6     3     39    1
7     3     40    1
8     3     41    1
9     4     5     1
10    4     42    1
11    4     43    1
12    5     6     am
13    5     44    1
14    6     7     2
15    6     8     1
16    8     9     1
17    8     24    1
18    8     45    1
19    9     10    2
20    9     11    1
21    11    23    ar
22    11    12    ar
23    12    13    ar
24    12    46    1
25    13    14    ar
26    13    47    1
27    14    15    1
28    14    22    ar
29    15    16    am
30    15    48    1
31    16    17    2
32    16    18    1
33    18    19    1
34    18    20    1
35    18    21    1
36    19    49    1
37    19    50    1
38    19    51    1
39    20    52    1
40    20    53    1
41    20    54    1
42    21    55    1
43    21    56    1
44    21    57    1
45    22    23    ar
46    22    58    1
47    23    59    1
48    24    36    ar
49    24    25    ar
50    25    26    ar
51    25    60    1
52    26    27    ar
53    26    61    1
54    27    28    1
55    27    35    ar
56    28    29    1
57    28    62    1
58    28    63    1
59    29    34    ar
60    29    30    ar
61    30    31    ar
62    30    64    1
63    31    32    ar
64    31    65    1
65    32    33    ar
66    32    66    1
67    33    34    ar
68    33    67    1
69    34    68    1
70    35    36    ar
71    35    69    1
72    36    70    1
@<TRIPOS>SUBSTRUCTURE
1   ZINC000027310962 1     RESIDUE    1   A     ZIN   1
@<TRIPOS>MOLECULE
ZINC000015247565
51    54    1     0     0
SMALL
USER_CHARGES
@<TRIPOS>ATOM
1      O1     -0.5529    0.2479    0.6100 O.2      1 ZINC000015247565   -0.3800
2      C2     -0.4002    1.4242    0.3584 C.2      1 ZINC000015247565    0.3900
3      C3      0.9334    2.0339    0.4736 C.ar     1 ZINC000015247565   -0.1800
4      C4      1.1122    3.3921    0.1897 C.ar     1 ZINC000015247565   -0.0700
5      C5      2.3646    3.9566    0.3003 C.ar     1 ZINC000015247565   -0.1100
6      C6      3.4452    3.1823    0.6910 C.ar     1 ZINC000015247565    0.0100
7      Cl7     5.0191    3.9020    0.8276 Cl       1 ZINC000015247565   -0.0300
8      C8      3.2756    1.8365    0.9738 C.ar     1 ZINC000015247565   -0.1100
9      C9      2.0280    1.2597    0.8732 C.ar     1 ZINC000015247565   -0.0300
10     C10    -1.5756    2.2601   -0.0783 C.3      1 ZINC000015247565    0.0600
11     C11    -2.6194    1.3711   -0.7038 C.2      1 ZINC000015247565    0.2200
12     S12    -4.0027    1.1071    0.0536 S.2      1 ZINC000015247565   -0.3400
13     N13    -2.3870    0.7986   -1.9016 N.am     1 ZINC000015247565   -0.5600
14     C14    -3.3164   -0.0963   -2.4410 C.ar     1 ZINC000015247565    0.0900
15     C15    -4.6699    0.2144   -2.4281 C.ar     1 ZINC000015247565   -0.0600
16     C16    -5.5858   -0.6713   -2.9620 C.ar     1 ZINC000015247565   -0.1000
17     C17    -5.1566   -1.8663   -3.5087 C.ar     1 ZINC000015247565   -0.0600
18     C18    -3.8086   -2.1796   -3.5229 C.ar     1 ZINC000015247565   -0.0900
19     Br19   -3.2267   -3.8158   -4.2712 Br       1 ZINC000015247565   -0.0200
20     C20    -2.8871   -1.2950   -2.9959 C.ar     1 ZINC000015247565   -0.0800
21     N21    -2.1486    2.9424    1.0847 N.ar     1 ZINC000015247565   -0.3300
22     C22    -2.6068    2.2233    2.0906 C.ar     1 ZINC000015247565    0.1700
23     C23    -3.1553    2.8361    3.2000 C.ar     1 ZINC000015247565   -0.1300
24     C24    -3.2211    4.2240    3.2484 C.ar     1 ZINC000015247565    0.0600
25     C25    -3.8332    4.8761    4.4569 C.3      1 ZINC000015247565   -0.1100
26     C26    -3.4386    6.3509    4.5254 C.3      1 ZINC000015247565   -0.1300
27     C27    -3.7353    6.9971    3.1672 C.3      1 ZINC000015247565   -0.1300
28     C28    -2.7450    6.4476    2.1416 C.3      1 ZINC000015247565   -0.0900
29     C29    -2.7275    4.9435    2.1808 C.ar     1 ZINC000015247565   -0.0800
30     C30    -2.1883    4.2586    1.1017 C.ar     1 ZINC000015247565    0.1100
31     H31     0.2710    3.9966   -0.1156 H        1 ZINC000015247565    0.1300
32     H32     2.5041    5.0050    0.0814 H        1 ZINC000015247565    0.1500
33     H33     4.1225    1.2389    1.2775 H        1 ZINC000015247565    0.1500
34     H34     1.8973    0.2106    1.0939 H        1 ZINC000015247565    0.1500
35     H35    -1.2446    3.0000   -0.8069 H        1 ZINC000015247565    0.1800
36     H36    -1.5750    1.0074   -2.3895 H        1 ZINC000015247565    0.4200
37     H37    -5.0062    1.1474   -2.0007 H        1 ZINC000015247565    0.1500
38     H38    -6.6384   -0.4299   -2.9521 H        1 ZINC000015247565    0.1500
39     H39    -5.8748   -2.5571   -3.9251 H        1 ZINC000015247565    0.1500
40     H40    -1.8352   -1.5395   -3.0074 H        1 ZINC000015247565    0.1400
41     H41    -2.5530    1.1456    2.0463 H        1 ZINC000015247565    0.2000
42     H42    -3.5297    2.2432    4.0214 H        1 ZINC000015247565    0.1900
43     H43    -4.9186    4.7957    4.3988 H        1 ZINC000015247565    0.1100
44     H44    -3.4848    4.3677    5.3560 H        1 ZINC000015247565    0.1100
45     H45    -4.0181    6.8494    5.3026 H        1 ZINC000015247565    0.0900
46     H46    -2.3747    6.4356    4.7467 H        1 ZINC000015247565    0.0800
47     H47    -4.7527    6.7541    2.8606 H        1 ZINC000015247565    0.0800
48     H48    -3.6213    8.0784    3.2435 H        1 ZINC000015247565    0.0900
49     H49    -3.0373    6.7787    1.1451 H        1 ZINC000015247565    0.1000
50     H50    -1.7474    6.8255    2.3654 H        1 ZINC000015247565    0.1000
51     H51    -1.7988    4.8133    0.2608 H        1 ZINC000015247565    0.2000
@<TRIPOS>BOND
1     1     2     2
2     2     3     1
3     2     10    1
4     3     9     ar
5     3     4     ar
6     4     5     ar
7     4     31    1
8     5     6     ar
9     5     32    1
10    6     7     1
11    6     8     ar
12    8     9     ar
13    8     33    1
14    9     34    1
15    10    11    1
16    10    21    1
17    10    35    1
18    11    12    2
19    11    13    am
20    13    14    1
21    13    36    1
22    14    20    ar
23    14    15    ar
24    15    16    ar
25    15    37    1
26    16    17    ar
27    16    38    1
28    17    18    ar
29    17    39    1
30    18    19    1
31    18    20    ar
32    20    40    1
33    21    30    ar
34    21    22    ar
35    22    23    ar
36    22    41    1
37    23    24    ar
38    23    42    1
39    24    29    ar
40    24    25    1
41    25    26    1
42    25    43    1
43    25    44    1
44    26    27    1
45    26    45    1
46    26    46    1
47    27    28    1
48    27    47    1
49    27    48    1
50    28    29    1
51    28    49    1
52    28    50    1
53    29    30    ar
54    30    51    1
@<TRIPOS>SUBSTRUCTURE
1   ZINC000015247565 1     RESIDUE    1   A     ZIN   1
@<TRIPOS>MOLECULE
ZINC000015247650
51    54    1     0     0
SMALL
USER_CHARGES
@<TRIPOS>ATOM
1      O1     -0.5528    0.2479    0.6100 O.2      1 ZINC000015247650   -0.3800
2      C2     -0.4002    1.4241    0.3584 C.2      1 ZINC000015247650    0.3900
3      C3      0.9342    2.0341    0.4737 C.ar     1 ZINC000015247650   -0.1700
4      C4      1.1131    3.3916    0.1899 C.ar     1 ZINC000015247650   -0.0800
5      C5      2.3663    3.9566    0.3000 C.ar     1 ZINC000015247650   -0.1100
6      C6      3.4460    3.1840    0.6897 C.ar     1 ZINC000015247650   -0.0600
7      C7      3.2776    1.8382    0.9722 C.ar     1 ZINC000015247650   -0.0400
8      Cl8     4.6396    0.8788    1.4603 Cl       1 ZINC000015247650   -0.0300
9      C9      2.0285    1.2603    0.8731 C.ar     1 ZINC000015247650   -0.0400
10     C10    -1.5756    2.2600   -0.0783 C.3      1 ZINC000015247650    0.0600
11     C11    -2.6194    1.3710   -0.7038 C.2      1 ZINC000015247650    0.2200
12     S12    -4.0027    1.1070    0.0536 S.2      1 ZINC000015247650   -0.3400
13     N13    -2.3870    0.7985   -1.9016 N.am     1 ZINC000015247650   -0.5600
14     C14    -3.3164   -0.0964   -2.4410 C.ar     1 ZINC000015247650    0.0900
15     C15    -4.6699    0.2143   -2.4281 C.ar     1 ZINC000015247650   -0.0600
16     C16    -5.5858   -0.6714   -2.9620 C.ar     1 ZINC000015247650   -0.1000
17     C17    -5.1566   -1.8664   -3.5087 C.ar     1 ZINC000015247650   -0.0600
18     C18    -3.8086   -2.1797   -3.5229 C.ar     1 ZINC000015247650   -0.0900
19     Br19   -3.2267   -3.8159   -4.2712 Br       1 ZINC000015247650   -0.0200
20     C20    -2.8871   -1.2951   -2.9959 C.ar     1 ZINC000015247650   -0.0800
21     N21    -2.1486    2.9423    1.0847 N.ar     1 ZINC000015247650   -0.3300
22     C22    -2.6068    2.2232    2.0906 C.ar     1 ZINC000015247650    0.1700
23     C23    -3.1553    2.8360    3.2000 C.ar     1 ZINC000015247650   -0.1300
24     C24    -3.2211    4.2239    3.2484 C.ar     1 ZINC000015247650    0.0600
25     C25    -3.8332    4.8760    4.4569 C.3      1 ZINC000015247650   -0.1100
26     C26    -3.4386    6.3508    4.5254 C.3      1 ZINC000015247650   -0.1300
27     C27    -3.7353    6.9970    3.1672 C.3      1 ZINC000015247650   -0.1300
28     C28    -2.7450    6.4475    2.1416 C.3      1 ZINC000015247650   -0.0900
29     C29    -2.7275    4.9434    2.1808 C.ar     1 ZINC000015247650   -0.0800
30     C30    -2.1883    4.2585    1.1017 C.ar     1 ZINC000015247650    0.1200
31     H31     0.2717    3.9963   -0.1151 H        1 ZINC000015247650    0.1300
32     H32     2.5055    5.0050    0.0810 H        1 ZINC000015247650    0.1500
33     H33     4.4250    3.6323    0.7736 H        1 ZINC000015247650    0.1500
34     H34     1.8982    0.2112    1.0939 H        1 ZINC000015247650    0.1500
35     H35    -1.2446    2.9999   -0.8069 H        1 ZINC000015247650    0.1800
36     H36    -1.5750    1.0073   -2.3895 H        1 ZINC000015247650    0.4200
37     H37    -5.0062    1.1473   -2.0007 H        1 ZINC000015247650    0.1500
38     H38    -6.6384   -0.4300   -2.9521 H        1 ZINC000015247650    0.1500
39     H39    -5.8748   -2.5572   -3.9251 H        1 ZINC000015247650    0.1500
40     H40    -1.8352   -1.5396   -3.0074 H        1 ZINC000015247650    0.1400
41     H41    -2.5530    1.1455    2.0463 H        1 ZINC000015247650    0.2000
42     H42    -3.5297    2.2431    4.0214 H        1 ZINC000015247650    0.1900
43     H43    -4.9186    4.7956    4.3988 H        1 ZINC000015247650    0.1100
44     H44    -3.4848    4.3676    5.3560 H        1 ZINC000015247650    0.1100
45     H45    -4.0181    6.8493    5.3026 H        1 ZINC000015247650    0.0900
46     H46    -2.3747    6.4355    4.7467 H        1 ZINC000015247650    0.0800
47     H47    -4.7527    6.7540    2.8606 H        1 ZINC000015247650    0.0800
48     H48    -3.6213    8.0783    3.2435 H        1 ZINC000015247650    0.0900
49     H49    -3.0373    6.7786    1.1451 H        1 ZINC000015247650    0.1000
50     H50    -1.7474    6.8254    2.3654 H        1 ZINC000015247650    0.1000
51     H51    -1.7988    4.8132    0.2608 H        1 ZINC000015247650    0.2000
@<TRIPOS>BOND
1     1     2     2
2     2     3     1
3     2     10    1
4     3     9     ar
5     3     4     ar
6     4     5     ar
7     4     31    1
8     5     6     ar
9     5     32    1
10    6     7     ar
11    6     33    1
12    7     8     1
13    7     9     ar
14    9     34    1
15    10    11    1
16    10    21    1
17    10    35    1
18    11    12    2
19    11    13    am
20    13    14    1
21    13    36    1
22    14    20    ar
23    14    15    ar
24    15    16    ar
25    15    37    1
26    16    17    ar
27    16    38    1
28    17    18    ar
29    17    39    1
30    18    19    1
31    18    20    ar
32    20    40    1
33    21    30    ar
34    21    22    ar
35    22    23    ar
36    22    41    1
37    23    24    ar
38    23    42    1
39    24    29    ar
40    24    25    1
41    25    26    1
42    25    43    1
43    25    44    1
44    26    27    1
45    26    45    1
46    26    46    1
47    27    28    1
48    27    47    1
49    27    48    1
50    28    29    1
51    28    49    1
52    28    50    1
53    29    30    ar
54    30    51    1
@<TRIPOS>SUBSTRUCTURE
1   ZINC000015247650 1     RESIDUE    1   A     ZIN   1
@<TRIPOS>MOLECULE
ZINC000514390803
63    67    1     0     0
SMALL
USER_CHARGES
@<TRIPOS>ATOM
1      C1     -0.0157    1.3058    0.0092 C.2      1 ZINC000514390803   -0.1700
2      C2      0.0021   -0.0041    0.0020 C.2      1 ZINC000514390803   -0.1800
3      C3      1.3172   -0.7397   -0.0145 C.3      1 ZINC000514390803    0.1200
4      N4      1.3674   -1.6756    1.1115 N.pl3    1 ZINC000514390803   -0.4500
5      C5      1.8326   -1.4255    2.3730 C.2      1 ZINC000514390803    0.1600
6      C6      2.3971   -0.1213    2.8744 C.3      1 ZINC000514390803   -0.0500
7      C7      1.2676    0.7363    3.4485 C.3      1 ZINC000514390803   -0.0100
8      N8      1.8179    2.0076    3.9372 N.4      1 ZINC000514390803   -0.3800
9      H9      2.5576    1.8210    4.5977 H        1 ZINC000514390803    0.4300
10     C10     0.7566    2.7767    4.5980 C.3      1 ZINC000514390803   -0.0100
11     C11     1.3420    4.0652    5.1799 C.3      1 ZINC000514390803   -0.1500
12     C12     1.9505    4.8993    4.0489 C.3      1 ZINC000514390803   -0.1400
13     C13     3.0041    4.0608    3.3195 C.3      1 ZINC000514390803   -0.1500
14     C14     2.3556    2.7733    2.8063 C.3      1 ZINC000514390803   -0.0200
15     N15     1.6968   -2.5235    3.0613 N.2      1 ZINC000514390803   -0.2600
16     N16     1.1815   -3.4438    2.3268 N.2      1 ZINC000514390803   -0.2900
17     C17     0.9540   -2.9768    1.1210 C.2      1 ZINC000514390803    0.1500
18     S18     0.2568   -3.8646   -0.2320 S.3      1 ZINC000514390803    0.1400
19     C19    -0.0043   -5.4757    0.5504 C.3      1 ZINC000514390803   -0.0900
20     C20    -0.6115   -6.4267   -0.4486 C.2      1 ZINC000514390803    0.4600
21     N21    -0.8469   -5.9989   -1.6576 N.2      1 ZINC000514390803   -0.5700
22     C22    -1.3862   -6.8006   -2.5908 C.2      1 ZINC000514390803    0.5400
23     O23    -1.6000   -6.3850   -3.7186 O.2      1 ZINC000514390803   -0.4600
24     C24    -1.7149   -8.1921   -2.2286 C.2      1 ZINC000514390803   -0.2100
25     C25    -1.4438   -8.5915   -0.9322 C.2      1 ZINC000514390803    0.0500
26     N26    -0.8837   -7.6821   -0.0604 N.pl3    1 ZINC000514390803   -0.5800
27     S27    -1.9067  -10.2718   -0.7101 S.3      1 ZINC000514390803    0.2100
28     C28    -2.4594  -10.4127   -2.3682 C.2      1 ZINC000514390803   -0.2100
29     C29    -2.2978   -9.2630   -3.0264 C.2      1 ZINC000514390803    0.0400
30     C30    -2.6778   -9.0906   -4.4442 C.2      1 ZINC000514390803   -0.1500
31     C31    -2.3298   -9.9185   -5.4496 C.2      1 ZINC000514390803   -0.1100
32     C32    -2.8058   -9.5483   -6.6920 C.2      1 ZINC000514390803   -0.1500
33     C33    -3.5357   -8.4306   -6.7080 C.2      1 ZINC000514390803   -0.1800
34     C34    -4.1638   -7.8231   -7.9359 C.3      1 ZINC000514390803   -0.0900
35     S35    -3.6605   -7.7777   -5.0799 S.3      1 ZINC000514390803    0.1800
36     H36     0.9122    1.8585    0.0033 H        1 ZINC000514390803    0.1000
37     H37    -0.9582    1.8330    0.0166 H        1 ZINC000514390803    0.1100
38     H38    -0.9258   -0.5567    0.0079 H        1 ZINC000514390803    0.1300
39     H39     1.4134   -1.2911   -0.9498 H        1 ZINC000514390803    0.1200
40     H40     2.1349   -0.0241    0.0711 H        1 ZINC000514390803    0.1000
41     H41     3.1342   -0.3197    3.6526 H        1 ZINC000514390803    0.1200
42     H42     2.8732    0.4094    2.0499 H        1 ZINC000514390803    0.1000
43     H43     0.5306    0.9347    2.6703 H        1 ZINC000514390803    0.1300
44     H44     0.7916    0.2055    4.2730 H        1 ZINC000514390803    0.1400
45     H45    -0.0172    3.0253    3.8717 H        1 ZINC000514390803    0.1300
46     H46     0.3223    2.1805    5.4005 H        1 ZINC000514390803    0.1300
47     H47     0.5520    4.6356    5.6685 H        1 ZINC000514390803    0.1100
48     H48     2.1158    3.8177    5.9066 H        1 ZINC000514390803    0.0900
49     H49     1.1674    5.1902    3.3487 H        1 ZINC000514390803    0.0800
50     H50     2.4187    5.7913    4.4652 H        1 ZINC000514390803    0.1000
51     H51     3.4022    4.6282    2.4783 H        1 ZINC000514390803    0.1100
52     H52     3.8124    3.8133    4.0076 H        1 ZINC000514390803    0.0900
53     H53     3.1022    2.1733    2.2860 H        1 ZINC000514390803    0.1300
54     H54     1.5478    3.0231    2.1183 H        1 ZINC000514390803    0.1300
55     H55     0.9511   -5.8716    0.8946 H        1 ZINC000514390803    0.1400
56     H56    -0.6779   -5.3622    1.3999 H        1 ZINC000514390803    0.1400
57     H57    -0.6894   -7.9523    0.8508 H        1 ZINC000514390803    0.4300
58     H58    -2.8752  -11.3111   -2.7999 H        1 ZINC000514390803    0.1900
59     H59    -1.7264  -10.8009   -5.2957 H        1 ZINC000514390803    0.1400
60     H60    -2.6023  -10.1207   -7.5850 H        1 ZINC000514390803    0.1400
61     H61    -5.1661   -8.2300   -8.0704 H        1 ZINC000514390803    0.0800
62     H62    -4.2239   -6.7414   -7.8159 H        1 ZINC000514390803    0.0700
63     H63    -3.5558   -8.0586   -8.8093 H        1 ZINC000514390803    0.0800
@<TRIPOS>BOND
1     1     2     2
2     1     36    1
3     1     37    1
4     2     3     1
5     2     38    1
6     3     4     1
7     3     39    1
8     3     40    1
9     4     17    1
10    4     5     1
11    5     6     1
12    5     15    2
13    6     7     1
14    6     41    1
15    6     42    1
16    7     8     1
17    7     43    1
18    7     44    1
19    8     9     1
20    8     14    1
21    8     10    1
22    10    11    1
23    10    45    1
24    10    46    1
25    11    12    1
26    11    47    1
27    11    48    1
28    12    13    1
29    12    49    1
30    12    50    1
31    13    14    1
32    13    51    1
33    13    52    1
34    14    53    1
35    14    54    1
36    15    16    1
37    16    17    2
38    17    18    1
39    18    19    1
40    19    20    1
41    19    55    1
42    19    56    1
43    20    26    1
44    20    21    2
45    21    22    1
46    22    23    2
47    22    24    1
48    24    29    1
49    24    25    2
50    25    26    1
51    25    27    1
52    26    57    1
53    27    28    1
54    28    29    2
55    28    58    1
56    29    30    1
57    30    35    1
58    30    31    2
59    31    32    1
60    31    59    1
61    32    33    2
62    32    60    1
63    33    34    1
64    33    35    1
65    34    61    1
66    34    62    1
67    34    63    1
@<TRIPOS>SUBSTRUCTURE
1   ZINC000514390803 1     RESIDUE    1   A     ZIN   1
@<TRIPOS>MOLECULE
ZINC000514391472
72    75    1     0     0
SMALL
USER_CHARGES
@<TRIPOS>ATOM
1      C1      0.0306    1.3143    0.0304 C.2      1 ZINC000514391472   -0.1700
2      C2      0.0413    0.0044    0.0188 C.2      1 ZINC000514391472   -0.1800
3      C3     -1.2575   -0.7598    0.0179 C.3      1 ZINC000514391472    0.1300
4      N4     -1.2818   -1.6803   -1.1216 N.pl3    1 ZINC000514391472   -0.4500
5      C5     -1.7461   -1.4222   -2.3818 C.2      1 ZINC000514391472    0.1600
6      C6     -2.3364   -0.1235   -2.8675 C.3      1 ZINC000514391472   -0.0500
7      C7     -1.2229    0.7666   -3.4233 C.3      1 ZINC000514391472   -0.0100
8      N8     -1.7984    2.0325   -3.8968 N.4      1 ZINC000514391472   -0.3800
9      H9     -2.5305    1.8394   -4.5637 H        1 ZINC000514391472    0.4300
10     C10    -0.7508    2.8339   -4.5409 C.3      1 ZINC000514391472   -0.0100
11     C11    -1.3611    4.1176   -5.1075 C.3      1 ZINC000514391472   -0.1500
12     C12    -1.9932    4.9220   -3.9679 C.3      1 ZINC000514391472   -0.1400
13     C13    -3.0320    4.0505   -3.2561 C.3      1 ZINC000514391472   -0.1400
14     C14    -2.3581    2.7701   -2.7578 C.3      1 ZINC000514391472   -0.0200
15     N15    -1.5830   -2.5070   -3.0849 N.2      1 ZINC000514391472   -0.2600
16     N16    -1.0515   -3.4263   -2.3610 N.2      1 ZINC000514391472   -0.2700
17     C17    -0.8402   -2.9720   -1.1475 C.2      1 ZINC000514391472    0.1700
18     S18    -0.1305   -3.8637    0.1963 S.3      1 ZINC000514391472    0.0900
19     C19     0.1695   -5.4574   -0.6076 C.3      1 ZINC000514391472   -0.0600
20     H20     0.7720   -5.3050   -1.5030 H        1 ZINC000514391472    0.1300
21     C21     0.9029   -6.3690    0.3423 C.2      1 ZINC000514391472    0.5400
22     O22     0.8068   -6.2013    1.5397 O.2      1 ZINC000514391472   -0.5000
23     N23     1.6658   -7.3705   -0.1388 N.am     1 ZINC000514391472   -0.6500
24     C24     2.4389   -8.1449    0.7364 C.ar     1 ZINC000514391472    0.1200
25     C25     2.8421   -7.6220    1.9560 C.ar     1 ZINC000514391472   -0.0900
26     C26     3.6047   -8.3879    2.8178 C.ar     1 ZINC000514391472   -0.1000
27     C27     4.0421   -7.8182    4.1427 C.3      1 ZINC000514391472   -0.1100
28     C28     3.9669   -9.6752    2.4676 C.ar     1 ZINC000514391472   -0.0900
29     C29     3.5689  -10.2032    1.2530 C.ar     1 ZINC000514391472   -0.1800
30     C30     2.7998   -9.4444    0.3863 C.ar     1 ZINC000514391472    0.1000
31     O31     2.4074   -9.9623   -0.8081 O.3      1 ZINC000514391472   -0.3200
32     C32     2.8244  -11.2964   -1.1052 C.3      1 ZINC000514391472    0.0300
33     C33    -1.1472   -6.0835   -0.9887 C.ar     1 ZINC000514391472   -0.1000
34     C34    -2.0855   -6.3673   -0.0140 C.ar     1 ZINC000514391472   -0.0900
35     C35    -3.2933   -6.9416   -0.3636 C.ar     1 ZINC000514391472   -0.1200
36     C36    -3.5630   -7.2318   -1.6879 C.ar     1 ZINC000514391472   -0.1000
37     C37    -2.6251   -6.9473   -2.6628 C.ar     1 ZINC000514391472   -0.1200
38     C38    -1.4190   -6.3690   -2.3137 C.ar     1 ZINC000514391472   -0.0700
39     H39     0.9615    1.8619    0.0310 H        1 ZINC000514391472    0.1100
40     H40    -0.9090    1.8466    0.0348 H        1 ZINC000514391472    0.1000
41     H41     0.9810   -0.5279    0.0099 H        1 ZINC000514391472    0.1300
42     H42    -1.3463   -1.3266    0.9447 H        1 ZINC000514391472    0.1200
43     H43    -2.0902   -0.0609   -0.0618 H        1 ZINC000514391472    0.1000
44     H44    -3.0651   -0.3266   -3.6523 H        1 ZINC000514391472    0.1200
45     H45    -2.8279    0.3849   -2.0380 H        1 ZINC000514391472    0.1000
46     H46    -0.4943    0.9697   -2.6386 H        1 ZINC000514391472    0.1300
47     H47    -0.7314    0.2582   -4.2528 H        1 ZINC000514391472    0.1400
48     H48     0.0139    3.0888   -3.8071 H        1 ZINC000514391472    0.1300
49     H49    -0.2997    2.2589   -5.3496 H        1 ZINC000514391472    0.1300
50     H50    -0.5814    4.7120   -5.5837 H        1 ZINC000514391472    0.1100
51     H51    -2.1258    3.8639   -5.8416 H        1 ZINC000514391472    0.0900
52     H52    -1.2202    5.2198   -3.2595 H        1 ZINC000514391472    0.0800
53     H53    -2.4787    5.8095   -4.3738 H        1 ZINC000514391472    0.1000
54     H54    -3.4465    4.5970   -2.4089 H        1 ZINC000514391472    0.1100
55     H55    -3.8313    3.7954   -3.9518 H        1 ZINC000514391472    0.0900
56     H56    -3.0941    2.1466   -2.2501 H        1 ZINC000514391472    0.1300
57     H57    -1.5594    3.0274   -2.0622 H        1 ZINC000514391472    0.1300
58     H58     1.6796   -7.5553   -1.0910 H        1 ZINC000514391472    0.4200
59     H59     2.5606   -6.6166    2.2322 H        1 ZINC000514391472    0.1500
60     H60     3.2906   -8.0415    4.9000 H        1 ZINC000514391472    0.0700
61     H61     4.9938   -8.2631    4.4331 H        1 ZINC000514391472    0.0700
62     H62     4.1580   -6.7381    4.0533 H        1 ZINC000514391472    0.0700
63     H63     4.5625  -10.2700    3.1442 H        1 ZINC000514391472    0.1300
64     H64     3.8539  -11.2091    0.9822 H        1 ZINC000514391472    0.1400
65     H65     3.9134  -11.3444   -1.1087 H        1 ZINC000514391472    0.0600
66     H66     2.4332  -11.9764   -0.3484 H        1 ZINC000514391472    0.0600
67     H67     2.4448  -11.5861   -2.0850 H        1 ZINC000514391472    0.1000
68     H68    -1.8748   -6.1405    1.0207 H        1 ZINC000514391472    0.1300
69     H69    -4.0261   -7.1639    0.3980 H        1 ZINC000514391472    0.1300
70     H70    -4.5064   -7.6812   -1.9610 H        1 ZINC000514391472    0.1200
71     H71    -2.8357   -7.1743   -3.6974 H        1 ZINC000514391472    0.1300
72     H72    -0.6863   -6.1466   -3.0753 H        1 ZINC000514391472    0.1300
@<TRIPOS>BOND
1     1     2     2
2     1     39    1
3     1     40    1
4     2     3     1
5     2     41    1
6     3     4     1
7     3     42    1
8     3     43    1
9     4     17    1
10    4     5     1
11    5     6     1
12    5     15    2
13    6     7     1
14    6     44    1
15    6     45    1
16    7     8     1
17    7     46    1
18    7     47    1
19    8     9     1
20    8     14    1
21    8     10    1
22    10    11    1
23    10    48    1
24    10    49    1
25    11    12    1
26    11    50    1
27    11    51    1
28    12    13    1
29    12    52    1
30    12    53    1
31    13    14    1
32    13    54    1
33    13    55    1
34    14    56    1
35    14    57    1
36    15    16    1
37    16    17    2
38    17    18    1
39    18    19    1
40    19    20    1
41    19    21    1
42    19    33    1
43    21    22    2
44    21    23    am
45    23    24    1
46    23    58    1
47    24    30    ar
48    24    25    ar
49    25    26    ar
50    25    59    1
51    26    27    1
52    26    28    ar
53    27    60    1
54    27    61    1
55    27    62    1
56    28    29    ar
57    28    63    1
58    29    30    ar
59    29    64    1
60    30    31    1
61    31    32    1
62    32    65    1
63    32    66    1
64    32    67    1
65    33    38    ar
66    33    34    ar
67    34    35    ar
68    34    68    1
69    35    36    ar
70    35    69    1
71    36    37    ar
72    36    70    1
73    37    38    ar
74    37    71    1
75    38    72    1
@<TRIPOS>SUBSTRUCTURE
1   ZINC000514391472 1     RESIDUE    1   A     ZIN   1
@<TRIPOS>MOLECULE
ZINC000514391473
72    75    1     0     0
SMALL
USER_CHARGES
@<TRIPOS>ATOM
1      C1     -0.0687    1.3026    0.0411 C.2      1 ZINC000514391473   -0.1700
2      C2     -0.0434   -0.0071    0.0296 C.2      1 ZINC000514391473   -0.1800
3      C3     -1.3336   -0.7858    0.0422 C.3      1 ZINC000514391473    0.1300
4      N4     -1.3592   -1.7068   -1.0968 N.pl3    1 ZINC000514391473   -0.4500
5      C5     -1.8392   -1.4543   -2.3523 C.2      1 ZINC000514391473    0.1500
6      C6     -2.4489   -0.1624   -2.8322 C.3      1 ZINC000514391473   -0.0500
7      C7     -1.3513    0.7398   -3.3996 C.3      1 ZINC000514391473   -0.0100
8      N8     -1.9456    1.9991   -3.8674 N.4      1 ZINC000514391473   -0.3800
9      H9     -2.6824    1.7976   -4.5267 H        1 ZINC000514391473    0.4300
10     C10    -0.9137    2.8119   -4.5223 C.3      1 ZINC000514391473   -0.0100
11     C11    -1.5442    4.0886   -5.0829 C.3      1 ZINC000514391473   -0.1500
12     C12    -2.1736    4.8862   -3.9371 C.3      1 ZINC000514391473   -0.1400
13     C13    -3.1951    4.0034   -3.2145 C.3      1 ZINC000514391473   -0.1400
14     C14    -2.5019    2.7307   -2.7229 C.3      1 ZINC000514391473   -0.0200
15     N15    -1.6712   -2.5374   -3.0568 N.2      1 ZINC000514391473   -0.2600
16     N16    -1.1220   -3.4505   -2.3382 N.2      1 ZINC000514391473   -0.2700
17     C17    -0.9034   -2.9935   -1.1270 C.2      1 ZINC000514391473    0.1700
18     S18    -0.1701   -3.8768    0.2097 S.3      1 ZINC000514391473    0.1000
19     C19     0.1395   -5.4673   -0.5969 C.3      1 ZINC000514391473   -0.0600
20     H20    -0.7905   -5.8473   -1.0199 H        1 ZINC000514391473    0.1300
21     C21     0.6689   -6.4496    0.4159 C.2      1 ZINC000514391473    0.5400
22     O22     1.1613   -6.0489    1.4495 O.2      1 ZINC000514391473   -0.5100
23     N23     0.5954   -7.7733    0.1733 N.am     1 ZINC000514391473   -0.6500
24     C24     1.1707   -8.6830    1.0704 C.ar     1 ZINC000514391473    0.1100
25     C25     1.1652   -8.4155    2.4312 C.ar     1 ZINC000514391473   -0.0800
26     C26     1.7335   -9.3145    3.3143 C.ar     1 ZINC000514391473   -0.1000
27     C27     1.7266   -9.0223    4.7927 C.3      1 ZINC000514391473   -0.1100
28     C28     2.3075  -10.4810    2.8447 C.ar     1 ZINC000514391473   -0.0900
29     C29     2.3172  -10.7544    1.4892 C.ar     1 ZINC000514391473   -0.1900
30     C30     1.7448   -9.8615    0.5982 C.ar     1 ZINC000514391473    0.1000
31     O31     1.7532  -10.1291   -0.7349 O.3      1 ZINC000514391473   -0.3200
32     C32     2.3698  -11.3503   -1.1476 C.3      1 ZINC000514391473    0.0300
33     C33     1.1535   -5.2839   -1.6966 C.ar     1 ZINC000514391473   -0.1000
34     C34     2.4189   -4.8140   -1.3985 C.ar     1 ZINC000514391473   -0.0900
35     C35     3.3490   -4.6458   -2.4072 C.ar     1 ZINC000514391473   -0.1200
36     C36     3.0139   -4.9479   -3.7138 C.ar     1 ZINC000514391473   -0.1000
37     C37     1.7488   -5.4187   -4.0117 C.ar     1 ZINC000514391473   -0.1200
38     C38     0.8200   -5.5910   -3.0025 C.ar     1 ZINC000514391473   -0.0700
39     H39     0.8560    1.8606    0.0321 H        1 ZINC000514391473    0.1100
40     H40    -1.0142    1.8244    0.0550 H        1 ZINC000514391473    0.1000
41     H41     0.9020   -0.5289    0.0112 H        1 ZINC000514391473    0.1300
42     H42    -1.4065   -1.3532    0.9700 H        1 ZINC000514391473    0.1200
43     H43    -2.1748   -0.0963   -0.0291 H        1 ZINC000514391473    0.1000
44     H44    -3.1833   -0.3739   -3.6094 H        1 ZINC000514391473    0.1200
45     H45    -2.9376    0.3407   -1.9978 H        1 ZINC000514391473    0.1000
46     H46    -0.6169    0.9513   -2.6223 H        1 ZINC000514391473    0.1300
47     H47    -0.8626    0.2367   -4.2339 H        1 ZINC000514391473    0.1400
48     H48    -0.1445    3.0756   -3.7964 H        1 ZINC000514391473    0.1300
49     H49    -0.4645    2.2418   -5.3354 H        1 ZINC000514391473    0.1300
50     H50    -0.7761    4.6915   -5.5672 H        1 ZINC000514391473    0.1100
51     H51    -2.3134    3.8261   -5.8091 H        1 ZINC000514391473    0.0900
52     H52    -1.3967    5.1928   -3.2367 H        1 ZINC000514391473    0.0800
53     H53    -2.6730    5.7681   -4.3382 H        1 ZINC000514391473    0.1000
54     H54    -3.6071    4.5454   -2.3633 H        1 ZINC000514391473    0.1100
55     H55    -3.9986    3.7391   -3.9019 H        1 ZINC000514391473    0.0900
56     H56    -3.2256    2.0992   -2.2076 H        1 ZINC000514391473    0.1300
57     H57    -1.6991    2.9972   -2.0355 H        1 ZINC000514391473    0.1300
58     H58     0.1442   -8.0962   -0.6223 H        1 ZINC000514391473    0.4200
59     H59     0.7174   -7.5049    2.8009 H        1 ZINC000514391473    0.1500
60     H60     0.8217   -9.4334    5.2401 H        1 ZINC000514391473    0.0700
61     H61     2.6010   -9.4782    5.2572 H        1 ZINC000514391473    0.0700
62     H62     1.7522   -7.9441    4.9501 H        1 ZINC000514391473    0.0700
63     H63     2.7500  -11.1807    3.5383 H        1 ZINC000514391473    0.1300
64     H64     2.7669  -11.6665    1.1255 H        1 ZINC000514391473    0.1400
65     H65     3.4162  -11.3504   -0.8423 H        1 ZINC000514391473    0.0600
66     H66     1.8558  -12.1919   -0.6832 H        1 ZINC000514391473    0.0600
67     H67     2.3078  -11.4403   -2.2321 H        1 ZINC000514391473    0.1000
68     H68     2.6807   -4.5780   -0.3777 H        1 ZINC000514391473    0.1300
69     H69     4.3374   -4.2780   -2.1744 H        1 ZINC000514391473    0.1200
70     H70     3.7404   -4.8158   -4.5020 H        1 ZINC000514391473    0.1200
71     H71     1.4869   -5.6544   -5.0326 H        1 ZINC000514391473    0.1300
72     H72    -0.1684   -5.9588   -3.2352 H        1 ZINC000514391473    0.1300
@<TRIPOS>BOND
1     1     2     2
2     1     39    1
3     1     40    1
4     2     3     1
5     2     41    1
6     3     4     1
7     3     42    1
8     3     43    1
9     4     17    1
10    4     5     1
11    5     6     1
12    5     15    2
13    6     7     1
14    6     44    1
15    6     45    1
16    7     8     1
17    7     46    1
18    7     47    1
19    8     9     1
20    8     14    1
21    8     10    1
22    10    11    1
23    10    48    1
24    10    49    1
25    11    12    1
26    11    50    1
27    11    51    1
28    12    13    1
29    12    52    1
30    12    53    1
31    13    14    1
32    13    54    1
33    13    55    1
34    14    56    1
35    14    57    1
36    15    16    1
37    16    17    2
38    17    18    1
39    18    19    1
40    19    20    1
41    19    21    1
42    19    33    1
43    21    22    2
44    21    23    am
45    23    24    1
46    23    58    1
47    24    30    ar
48    24    25    ar
49    25    26    ar
50    25    59    1
51    26    27    1
52    26    28    ar
53    27    60    1
54    27    61    1
55    27    62    1
56    28    29    ar
57    28    63    1
58    29    30    ar
59    29    64    1
60    30    31    1
61    31    32    1
62    32    65    1
63    32    66    1
64    32    67    1
65    33    38    ar
66    33    34    ar
67    34    35    ar
68    34    68    1
69    35    36    ar
70    35    69    1
71    36    37    ar
72    36    70    1
73    37    38    ar
74    37    71    1
75    38    72    1
@<TRIPOS>SUBSTRUCTURE
1   ZINC000514391473 1     RESIDUE    1   A     ZIN   1
@<TRIPOS>MOLECULE
ZINC000028781045
59    61    1     0     0
SMALL
USER_CHARGES
@<TRIPOS>ATOM
1      C1     -0.7029    0.5557    0.5218 C.3      1 ZINC000028781045   -0.1500
2      C2     -0.5512   -0.9462    0.2727 C.3      1 ZINC000028781045   -0.0500
3      C3      0.1388   -1.5953    1.4741 C.3      1 ZINC000028781045   -0.1500
4      C4     -1.9333   -1.5731    0.0784 C.3      1 ZINC000028781045   -0.1600
5      C5      0.2798   -1.1688   -0.9646 C.ar     1 ZINC000028781045    0.0600
6      C6     -0.2397   -1.8485   -2.0557 C.ar     1 ZINC000028781045   -0.1200
7      C7      0.5521   -2.0336   -3.1731 C.ar     1 ZINC000028781045    0.1200
8      N8      1.7872   -1.5730   -3.2085 N.ar     1 ZINC000028781045   -0.3400
9      C9      2.5951   -1.7894   -4.4113 C.3      1 ZINC000028781045    0.0600
10     C10     3.0059   -0.4585   -4.9867 C.2      1 ZINC000028781045    0.4200
11     O11     3.0661    0.5187   -4.2713 O.2      1 ZINC000028781045   -0.3900
12     C12     3.3340   -0.3448   -6.4168 C.ar     1 ZINC000028781045   -0.1200
13     C13     3.2602   -1.4684   -7.2463 C.ar     1 ZINC000028781045   -0.0800
14     C14     3.5693   -1.3538   -8.5852 C.ar     1 ZINC000028781045   -0.0600
15     C15     3.9521   -0.1310   -9.1086 C.ar     1 ZINC000028781045    0.0000
16     N16     4.2826   -0.0168  -10.5467 N.pl3    1 ZINC000028781045    0.0100
17     O17     4.2173   -0.9974  -11.2663 O.2      1 ZINC000028781045   -0.1400
18     O18     4.6199    1.0577  -11.0107 O.2      1 ZINC000028781045   -0.1300
19     C19     4.0271    0.9856   -8.2943 C.ar     1 ZINC000028781045   -0.0600
20     C20     3.7157    0.8885   -6.9545 C.ar     1 ZINC000028781045   -0.0400
21     C21     3.8251   -2.5834   -4.0541 C.2      1 ZINC000028781045    0.1900
22     S22     5.2391   -1.8493   -3.9178 S.2      1 ZINC000028781045   -0.2900
23     N23     3.7334   -3.9124   -3.8495 N.am     1 ZINC000028781045   -0.5700
24     C24     4.8489   -4.6305   -3.4014 C.ar     1 ZINC000028781045    0.0600
25     C25     5.6672   -4.0977   -2.4140 C.ar     1 ZINC000028781045   -0.0400
26     C26     6.7671   -4.8064   -1.9726 C.ar     1 ZINC000028781045   -0.1200
27     C27     7.0547   -6.0503   -2.5153 C.ar     1 ZINC000028781045    0.1400
28     O28     8.1376   -6.7477   -2.0798 O.3      1 ZINC000028781045   -0.3100
29     C29     8.3740   -8.0217   -2.6823 C.3      1 ZINC000028781045    0.4100
30     F30     7.2739   -8.8558   -2.4561 F        1 ZINC000028781045   -0.2000
31     F31     8.5605   -7.8590   -4.0593 F        1 ZINC000028781045   -0.1900
32     C32     6.2377   -6.5832   -3.5017 C.ar     1 ZINC000028781045   -0.1800
33     C33     5.1342   -5.8782   -3.9400 C.ar     1 ZINC000028781045   -0.0600
34     C34     2.3141   -0.9222   -2.1897 C.ar     1 ZINC000028781045    0.1400
35     C35     1.5802   -0.6938   -1.0411 C.ar     1 ZINC000028781045   -0.1200
36     H36     0.2817    1.0023    0.6603 H        1 ZINC000028781045    0.0700
37     H37    -1.1945    1.0182   -0.3341 H        1 ZINC000028781045    0.0700
38     H38    -1.3040    0.7167    1.4167 H        1 ZINC000028781045    0.0800
39     H39    -0.4622   -1.4343    2.3691 H        1 ZINC000028781045    0.0800
40     H40     0.2469   -2.6653    1.2967 H        1 ZINC000028781045    0.0600
41     H41     1.1235   -1.1487    1.6126 H        1 ZINC000028781045    0.0700
42     H42    -2.4249   -1.1107   -0.7775 H        1 ZINC000028781045    0.0700
43     H43    -1.8252   -2.6431   -0.0991 H        1 ZINC000028781045    0.0700
44     H44    -2.5344   -1.4121    0.9733 H        1 ZINC000028781045    0.0800
45     H45    -1.2503   -2.2287   -2.0325 H        1 ZINC000028781045    0.1900
46     H46     0.1549   -2.5620   -4.0272 H        1 ZINC000028781045    0.2100
47     H47     2.0094   -2.3387   -5.1484 H        1 ZINC000028781045    0.1800
48     H48     2.9623   -2.4233   -6.8392 H        1 ZINC000028781045    0.1400
49     H49     3.5128   -2.2205   -9.2271 H        1 ZINC000028781045    0.1700
50     H50     4.3267    1.9363   -8.7100 H        1 ZINC000028781045    0.1700
51     H51     3.7743    1.7607   -6.3204 H        1 ZINC000028781045    0.1700
52     H52     2.8946   -4.3715   -4.0127 H        1 ZINC000028781045    0.4100
53     H53     5.4437   -3.1292   -1.9917 H        1 ZINC000028781045    0.1400
54     H54     7.4038   -4.3920   -1.2050 H        1 ZINC000028781045    0.1500
55     H55     9.2661   -8.4704   -2.2454 H        1 ZINC000028781045    0.1900
56     H56     6.4622   -7.5516   -3.9237 H        1 ZINC000028781045    0.1500
57     H57     4.4980   -6.2934   -4.7077 H        1 ZINC000028781045    0.1400
58     H58     3.3294   -0.5600   -2.2552 H        1 ZINC000028781045    0.2100
59     H59     2.0171   -0.1599   -0.2101 H        1 ZINC000028781045    0.1900
@<TRIPOS>BOND
1     1     2     1
2     1     36    1
3     1     37    1
4     1     38    1
5     2     3     1
6     2     4     1
7     2     5     1
8     3     39    1
9     3     40    1
10    3     41    1
11    4     42    1
12    4     43    1
13    4     44    1
14    5     35    ar
15    5     6     ar
16    6     7     ar
17    6     45    1
18    7     8     ar
19    7     46    1
20    8     9     1
21    8     34    ar
22    9     10    1
23    9     21    1
24    9     47    1
25    10    11    2
26    10    12    1
27    12    20    ar
28    12    13    ar
29    13    14    ar
30    13    48    1
31    14    15    ar
32    14    49    1
33    15    16    1
34    15    19    ar
35    16    17    2
36    16    18    2
37    19    20    ar
38    19    50    1
39    20    51    1
40    21    22    2
41    21    23    am
42    23    24    1
43    23    52    1
44    24    33    ar
45    24    25    ar
46    25    26    ar
47    25    53    1
48    26    27    ar
49    26    54    1
50    27    28    1
51    27    32    ar
52    28    29    1
53    29    30    1
54    29    31    1
55    29    55    1
56    32    33    ar
57    32    56    1
58    33    57    1
59    34    35    ar
60    34    58    1
61    35    59    1
@<TRIPOS>SUBSTRUCTURE
1   ZINC000028781045 1     RESIDUE    1   A     ZIN   1
@<TRIPOS>MOLECULE
ZINC000068249096
62    66    1     0     0
SMALL
USER_CHARGES
@<TRIPOS>ATOM
1      O1      2.1912    2.6649    2.0581 O.2      1 ZINC000068249096   -0.4400
2      C2      1.3140    2.8641    1.2421 C.2      1 ZINC000068249096    0.4300
3      C3      1.2624    2.0474   -0.0233 C.3      1 ZINC000068249096   -0.0600
4      N4      2.4453    1.1792   -0.0943 N.4      1 ZINC000068249096   -0.2400
5      C5      2.4132    0.2581    1.0442 C.3      1 ZINC000068249096   -0.0300
6      C6      3.6362   -0.6611    1.0093 C.3      1 ZINC000068249096   -0.1300
7      C7      4.4885   -0.3046   -0.2158 C.3      1 ZINC000068249096   -0.1000
8      C8      3.6244   -0.4742   -1.4723 C.3      1 ZINC000068249096   -0.1300
9      C9      2.4018    0.4391   -1.3577 C.3      1 ZINC000068249096   -0.0100
10     C10     4.8994    1.1697   -0.1065 C.3      1 ZINC000068249096    0.1000
11     H11     5.4929    1.3175    0.7958 H        1 ZINC000068249096    0.1300
12     O12     5.6823    1.5442   -1.2706 O.3      1 ZINC000068249096   -0.3500
13     C13     6.6101    2.5049   -1.1000 C.2      1 ZINC000068249096    0.6600
14     O14     6.7615    3.0164   -0.0082 O.2      1 ZINC000068249096   -0.5400
15     N15     7.3710    2.8993   -2.1402 N.am     1 ZINC000068249096   -0.5400
16     C16     8.4535    3.8641   -1.9317 C.3      1 ZINC000068249096    0.1700
17     C17     9.7269    3.1275   -1.6050 C.ar     1 ZINC000068249096   -0.0800
18     C18    10.0376    2.8358   -0.2901 C.ar     1 ZINC000068249096   -0.1100
19     C19    11.2069    2.1591    0.0121 C.ar     1 ZINC000068249096    0.1000
20     F20    11.5101    1.8743    1.2975 F        1 ZINC000068249096   -0.1100
21     C21    12.0660    1.7738   -1.0049 C.ar     1 ZINC000068249096    0.0500
22     F22    13.2074    1.1130   -0.7120 F        1 ZINC000068249096   -0.1100
23     C23    11.7525    2.0668   -2.3227 C.ar     1 ZINC000068249096    0.1000
24     F24    12.5881    1.6919   -3.3158 F        1 ZINC000068249096   -0.1100
25     C25    10.5799    2.7393   -2.6211 C.ar     1 ZINC000068249096   -0.1100
26     C26     7.1269    2.3871   -3.4195 C.ar     1 ZINC000068249096    0.1500
27     C27     6.6888    3.2285   -4.4336 C.ar     1 ZINC000068249096   -0.1300
28     C28     6.4487    2.7214   -5.6960 C.ar     1 ZINC000068249096   -0.0700
29     C29     6.6436    1.3770   -5.9514 C.ar     1 ZINC000068249096   -0.1400
30     C30     7.0802    0.5340   -4.9425 C.ar     1 ZINC000068249096    0.1200
31     F31     7.2694   -0.7796   -5.1948 F        1 ZINC000068249096   -0.1300
32     C32     7.3279    1.0379   -3.6785 C.ar     1 ZINC000068249096   -0.1400
33     C33     3.6425    2.0208   -0.0307 C.3      1 ZINC000068249096   -0.0400
34     C34     0.3388    3.8571    1.4819 C.2      1 ZINC000068249096   -0.3500
35     C35     0.2785    4.6626    2.5907 C.2      1 ZINC000068249096    0.0000
36     C36    -0.7748    5.5414    2.5649 C.2      1 ZINC000068249096   -0.1600
37     C37    -1.5540    5.4647    1.4772 C.2      1 ZINC000068249096   -0.1800
38     S38    -0.9890    4.2650    0.4038 S.3      1 ZINC000068249096    0.2300
39     H39     0.3612    1.4343   -0.0236 H        1 ZINC000068249096    0.1700
40     H40     1.2487    2.7140   -0.8856 H        1 ZINC000068249096    0.1600
41     H41     2.4169    0.8299    1.9722 H        1 ZINC000068249096    0.1500
42     H42     1.5063   -0.3446    0.9964 H        1 ZINC000068249096    0.1300
43     H43     4.2241   -0.5214    1.9165 H        1 ZINC000068249096    0.1100
44     H44     3.3111   -1.6991    0.9386 H        1 ZINC000068249096    0.1100
45     H45     5.3633   -0.9526   -0.2687 H        1 ZINC000068249096    0.1300
46     H46     4.2039   -0.1999   -2.3538 H        1 ZINC000068249096    0.1100
47     H47     3.2992   -1.5113   -1.5547 H        1 ZINC000068249096    0.1100
48     H48     1.4949   -0.1646   -1.3922 H        1 ZINC000068249096    0.1300
49     H49     2.3973    1.1434   -2.1895 H        1 ZINC000068249096    0.1300
50     H50     8.5961    4.4518   -2.8386 H        1 ZINC000068249096    0.1100
51     H51     8.1952    4.5271   -1.1060 H        1 ZINC000068249096    0.1200
52     H52     9.3679    3.1362    0.5021 H        1 ZINC000068249096    0.1600
53     H53    10.3352    2.9679   -3.6479 H        1 ZINC000068249096    0.1600
54     H54     6.5354    4.2790   -4.2353 H        1 ZINC000068249096    0.1400
55     H55     6.1080    3.3762   -6.4843 H        1 ZINC000068249096    0.1400
56     H56     6.4549    0.9831   -6.9391 H        1 ZINC000068249096    0.1400
57     H57     7.6682    0.3811   -2.8916 H        1 ZINC000068249096    0.1400
58     H58     3.6262    2.7172   -0.8692 H        1 ZINC000068249096    0.1300
59     H59     3.6416    2.5823    0.9036 H        1 ZINC000068249096    0.1600
60     H60     0.9887    4.6100    3.4027 H        1 ZINC000068249096    0.1600
61     H61    -0.9626    6.2439    3.3635 H        1 ZINC000068249096    0.1600
62     H62    -2.4216    6.0834    1.3014 H        1 ZINC000068249096    0.1800
@<TRIPOS>BOND
1     1     2     2
2     2     3     1
3     2     34    1
4     3     4     1
5     3     39    1
6     3     40    1
7     4     9     1
8     4     33    1
9     4     5     1
10    5     6     1
11    5     41    1
12    5     42    1
13    6     7     1
14    6     43    1
15    6     44    1
16    7     8     1
17    7     10    1
18    7     45    1
19    8     9     1
20    8     46    1
21    8     47    1
22    9     48    1
23    9     49    1
24    10    11    1
25    10    12    1
26    10    33    1
27    12    13    1
28    13    14    2
29    13    15    am
30    15    16    1
31    15    26    1
32    16    17    1
33    16    50    1
34    16    51    1
35    17    25    ar
36    17    18    ar
37    18    19    ar
38    18    52    1
39    19    20    1
40    19    21    ar
41    21    22    1
42    21    23    ar
43    23    24    1
44    23    25    ar
45    25    53    1
46    26    32    ar
47    26    27    ar
48    27    28    ar
49    27    54    1
50    28    29    ar
51    28    55    1
52    29    30    ar
53    29    56    1
54    30    31    1
55    30    32    ar
56    32    57    1
57    33    58    1
58    33    59    1
59    34    38    1
60    34    35    2
61    35    36    1
62    35    60    1
63    36    37    2
64    36    61    1
65    37    38    1
66    37    62    1
@<TRIPOS>SUBSTRUCTURE
1   ZINC000068249096 1     RESIDUE    1   A     ZIN   1
@<TRIPOS>MOLECULE
ZINC000524439106
63    66    1     0     0
SMALL
USER_CHARGES
@<TRIPOS>ATOM
1      N1      0.8629    1.1373   -2.5697 N.1      1 ZINC000524439106   -0.3700
2      C2      0.8144    2.1567   -2.0709 C.1      1 ZINC000524439106    0.2200
3      C3      0.7532    3.4418   -1.4420 C.ar     1 ZINC000524439106    0.0200
4      C4     -0.4667    4.1125   -1.3343 C.ar     1 ZINC000524439106   -0.0700
5      C5     -0.5184    5.3502   -0.7273 C.ar     1 ZINC000524439106   -0.1000
6      C6      0.6350    5.9274   -0.2264 C.ar     1 ZINC000524439106   -0.1400
7      C7      0.5706    7.2798    0.4353 C.3      1 ZINC000524439106    0.0300
8      N8      0.3234    7.1100    1.8734 N.4      1 ZINC000524439106   -0.3600
9      H9      1.0357    6.5013    2.2477 H        1 ZINC000524439106    0.4200
10     C10     0.4460    8.4149    2.5194 C.3      1 ZINC000524439106   -0.0100
11     C11     0.9137    8.2241    3.9452 C.3      1 ZINC000524439106   -0.1600
12     C12    -0.3074    8.1580    4.8805 C.3      1 ZINC000524439106    0.1200
13     N13    -1.4058    7.3852    4.2661 N.am     1 ZINC000524439106   -0.6300
14     C14    -2.6689    7.8378    4.3932 C.2      1 ZINC000524439106    0.7000
15     O15    -2.8992    8.8115    5.0840 O.2      1 ZINC000524439106   -0.5400
16     N16    -3.6767    7.2110    3.7545 N.am     1 ZINC000524439106   -0.6800
17     C17    -4.9720    7.7447    3.7960 C.ar     1 ZINC000524439106    0.1200
18     C18    -5.1552    9.1200    3.8374 C.ar     1 ZINC000524439106   -0.0700
19     C19    -6.4319    9.6460    3.8783 C.ar     1 ZINC000524439106   -0.1800
20     C20    -7.5309    8.8006    3.8785 C.ar     1 ZINC000524439106    0.1400
21     O21    -8.7875    9.3192    3.9188 O.3      1 ZINC000524439106   -0.2900
22     C22    -8.9006   10.7432    3.9595 C.3      1 ZINC000524439106    0.1000
23     C23   -10.3565   11.1304    4.0005 C.ar     1 ZINC000524439106   -0.1000
24     C24   -11.0497   11.3345    2.8208 C.ar     1 ZINC000524439106   -0.0600
25     C25   -12.3867   11.6903    2.8492 C.ar     1 ZINC000524439106   -0.1200
26     C26   -13.0374   11.8434    4.0556 C.ar     1 ZINC000524439106   -0.0600
27     C27   -12.3438   11.6385    5.2503 C.ar     1 ZINC000524439106   -0.0300
28     C28   -13.0130   11.7957    6.5065 C.1      1 ZINC000524439106    0.2500
29     N29   -13.5439   11.9204    7.5031 N.1      1 ZINC000524439106   -0.4000
30     C30   -10.9963   11.2751    5.2142 C.ar     1 ZINC000524439106   -0.0500
31     C31    -7.3489    7.4248    3.8371 C.ar     1 ZINC000524439106   -0.0500
32     Cl32   -8.7252    6.3667    3.8368 Cl       1 ZINC000524439106   -0.0400
33     C33    -6.0725    6.8980    3.7899 C.ar     1 ZINC000524439106   -0.0900
34     C34    -1.1741    6.1586    3.5314 C.3      1 ZINC000524439106    0.0900
35     C35    -0.9313    6.4825    2.0388 C.3      1 ZINC000524439106   -0.0600
36     C36     1.8472    5.2683   -0.3298 C.ar     1 ZINC000524439106   -0.0900
37     C37     1.9123    4.0274   -0.9288 C.ar     1 ZINC000524439106   -0.0700
38     H38    -1.3677    3.6634   -1.7255 H        1 ZINC000524439106    0.1500
39     H39    -1.4613    5.8701   -0.6433 H        1 ZINC000524439106    0.1400
40     H40     1.5163    7.8016    0.2883 H        1 ZINC000524439106    0.1400
41     H41    -0.2381    7.8621   -0.0062 H        1 ZINC000524439106    0.1400
42     H42     1.1701    9.0229    1.9771 H        1 ZINC000524439106    0.1400
43     H43    -0.5229    8.9142    2.5179 H        1 ZINC000524439106    0.1300
44     H44     1.4801    7.2959    4.0208 H        1 ZINC000524439106    0.0900
45     H45     1.5483    9.0617    4.2347 H        1 ZINC000524439106    0.1300
46     H46    -0.0155    7.6824    5.8168 H        1 ZINC000524439106    0.0900
47     H47    -0.6545    9.1703    5.0876 H        1 ZINC000524439106    0.1100
48     H48    -3.5056    6.3906    3.2662 H        1 ZINC000524439106    0.4000
49     H49    -4.2995    9.7789    3.8379 H        1 ZINC000524439106    0.1400
50     H50    -6.5741   10.7161    3.9105 H        1 ZINC000524439106    0.1400
51     H51    -8.3987   11.1222    4.8497 H        1 ZINC000524439106    0.0800
52     H52    -8.4359   11.1702    3.0708 H        1 ZINC000524439106    0.0800
53     H53   -10.5450   11.2159    1.8734 H        1 ZINC000524439106    0.1300
54     H54   -12.9218   11.8488    1.9245 H        1 ZINC000524439106    0.1400
55     H55   -14.0808   12.1215    4.0763 H        1 ZINC000524439106    0.1400
56     H56   -10.4541   11.1151    6.1344 H        1 ZINC000524439106    0.1400
57     H57    -5.9306    5.8279    3.7578 H        1 ZINC000524439106    0.1400
58     H58    -0.3008    5.6507    3.9406 H        1 ZINC000524439106    0.1100
59     H59    -2.0455    5.5105    3.6244 H        1 ZINC000524439106    0.1200
60     H60    -1.7199    7.1439    1.6800 H        1 ZINC000524439106    0.1300
61     H61    -0.9481    5.5581    1.4615 H        1 ZINC000524439106    0.1500
62     H62     2.7438    5.7247    0.0630 H        1 ZINC000524439106    0.1400
63     H63     2.8591    3.5138   -1.0085 H        1 ZINC000524439106    0.1500
@<TRIPOS>BOND
1     1     2     3
2     2     3     1
3     3     37    ar
4     3     4     ar
5     4     5     ar
6     4     38    1
7     5     6     ar
8     5     39    1
9     6     7     1
10    6     36    ar
11    7     8     1
12    7     40    1
13    7     41    1
14    8     9     1
15    8     35    1
16    8     10    1
17    10    11    1
18    10    42    1
19    10    43    1
20    11    12    1
21    11    44    1
22    11    45    1
23    12    13    1
24    12    46    1
25    12    47    1
26    13    14    am
27    13    34    1
28    14    15    2
29    14    16    am
30    16    17    1
31    16    48    1
32    17    33    ar
33    17    18    ar
34    18    19    ar
35    18    49    1
36    19    20    ar
37    19    50    1
38    20    21    1
39    20    31    ar
40    21    22    1
41    22    23    1
42    22    51    1
43    22    52    1
44    23    30    ar
45    23    24    ar
46    24    25    ar
47    24    53    1
48    25    26    ar
49    25    54    1
50    26    27    ar
51    26    55    1
52    27    28    1
53    27    30    ar
54    28    29    3
55    30    56    1
56    31    32    1
57    31    33    ar
58    33    57    1
59    34    35    1
60    34    58    1
61    34    59    1
62    35    60    1
63    35    61    1
64    36    37    ar
65    36    62    1
66    37    63    1
@<TRIPOS>SUBSTRUCTURE
1   ZINC000524439106 1     RESIDUE    1   A     ZIN   1
@<TRIPOS>MOLECULE
ZINC000022727009
59    62    1     0     0
SMALL
USER_CHARGES
@<TRIPOS>ATOM
1      C1     -2.3367    0.0712   -3.4287 C.3      1 ZINC000022727009   -0.1400
2      C2     -1.7154   -1.0646   -2.6573 C.ar     1 ZINC000022727009    0.0400
3      C3     -1.4554   -2.2666   -3.2918 C.ar     1 ZINC000022727009   -0.1200
4      C4     -0.8871   -3.3107   -2.5927 C.ar     1 ZINC000022727009   -0.0300
5      C5     -0.5731   -3.1522   -1.2393 C.ar     1 ZINC000022727009   -0.1900
6      C6      0.0340   -4.2611   -0.4861 C.2      1 ZINC000022727009    0.4000
7      O7      0.3050   -4.1203    0.6874 O.2      1 ZINC000022727009   -0.4100
8      C8      0.3189   -5.5718   -1.1732 C.3      1 ZINC000022727009    0.0700
9      C9      1.7078   -5.5414   -1.7571 C.2      1 ZINC000022727009    0.1900
10     S10     1.9423   -5.9538   -3.2841 S.2      1 ZINC000022727009   -0.2600
11     N11     2.7523   -5.1665   -0.9923 N.am     1 ZINC000022727009   -0.5900
12     C12     4.0536   -5.2339   -1.5032 C.ar     1 ZINC000022727009    0.0500
13     C13     4.3397   -4.6972   -2.7508 C.ar     1 ZINC000022727009   -0.0400
14     C14     5.6255   -4.7647   -3.2525 C.ar     1 ZINC000022727009   -0.1100
15     C15     6.6274   -5.3664   -2.5141 C.ar     1 ZINC000022727009   -0.0600
16     C16     6.3475   -5.9027   -1.2702 C.ar     1 ZINC000022727009   -0.1400
17     C17     5.0646   -5.8338   -0.7594 C.ar     1 ZINC000022727009    0.1100
18     F18     4.7909   -6.3576    0.4555 F        1 ZINC000022727009   -0.1400
19     N19     0.2215   -6.6638   -0.2015 N.ar     1 ZINC000022727009   -0.3400
20     C20     1.0088   -6.6542    0.8563 C.ar     1 ZINC000022727009    0.1300
21     C21     0.9450   -7.6671    1.7944 C.ar     1 ZINC000022727009   -0.1100
22     C22     0.0391   -8.7008    1.6119 C.ar     1 ZINC000022727009    0.0600
23     C23    -0.0618   -9.8236    2.6120 C.3      1 ZINC000022727009   -0.0600
24     C24    -1.0758   -9.4663    3.6679 C.ar     1 ZINC000022727009   -0.1100
25     C25    -0.6792   -8.7899    4.8064 C.ar     1 ZINC000022727009   -0.1100
26     C26    -1.6094   -8.4621    5.7749 C.ar     1 ZINC000022727009   -0.1100
27     C27    -2.9363   -8.8103    5.6048 C.ar     1 ZINC000022727009   -0.1100
28     C28    -3.3331   -9.4858    4.4659 C.ar     1 ZINC000022727009   -0.1100
29     C29    -2.4037   -9.8098    3.4954 C.ar     1 ZINC000022727009   -0.1100
30     C30    -0.7720   -8.6766    0.4877 C.ar     1 ZINC000022727009   -0.1200
31     C31    -0.6550   -7.6279   -0.4047 C.ar     1 ZINC000022727009    0.1300
32     C32    -0.8386   -1.9340   -0.6053 C.ar     1 ZINC000022727009    0.0200
33     C33    -1.4027   -0.8981   -1.3191 C.ar     1 ZINC000022727009   -0.0500
34     N34    -1.6845    0.3917   -0.6502 N.pl3    1 ZINC000022727009    0.0200
35     O35    -1.5080    1.4387   -1.2472 O.2      1 ZINC000022727009   -0.1200
36     O36    -2.0928    0.4063    0.4972 O.2      1 ZINC000022727009   -0.1400
37     H37    -1.5531    0.7401   -3.7846 H        1 ZINC000022727009    0.1100
38     H38    -2.8888   -0.3270   -4.2800 H        1 ZINC000022727009    0.0900
39     H39    -3.0174    0.6219   -2.7795 H        1 ZINC000022727009    0.0800
40     H40    -1.6985   -2.3874   -4.3371 H        1 ZINC000022727009    0.1700
41     H41    -0.6854   -4.2484   -3.0891 H        1 ZINC000022727009    0.1500
42     H42    -0.4072   -5.7293   -1.9707 H        1 ZINC000022727009    0.2000
43     H43     2.6022   -4.8501   -0.0877 H        1 ZINC000022727009    0.4100
44     H44     3.5579   -4.2275   -3.3292 H        1 ZINC000022727009    0.1500
45     H45     5.8480   -4.3471   -4.2233 H        1 ZINC000022727009    0.1500
46     H46     7.6311   -5.4180   -2.9095 H        1 ZINC000022727009    0.1500
47     H47     7.1325   -6.3721   -0.6959 H        1 ZINC000022727009    0.1500
48     H48     1.7120   -5.8456    0.9910 H        1 ZINC000022727009    0.1900
49     H49     1.5927   -7.6538    2.6585 H        1 ZINC000022727009    0.1900
50     H50    -0.3728  -10.7362    2.1035 H        1 ZINC000022727009    0.1100
51     H51     0.9099   -9.9817    3.0800 H        1 ZINC000022727009    0.1100
52     H52     0.3575   -8.5179    4.9392 H        1 ZINC000022727009    0.1200
53     H53    -1.2994   -7.9343    6.6647 H        1 ZINC000022727009    0.1300
54     H54    -3.6630   -8.5548    6.3619 H        1 ZINC000022727009    0.1300
55     H55    -4.3698   -9.7581    4.3332 H        1 ZINC000022727009    0.1300
56     H56    -2.7137  -10.3376    2.6056 H        1 ZINC000022727009    0.1300
57     H57    -1.4887   -9.4656    0.3134 H        1 ZINC000022727009    0.1900
58     H58    -1.2832   -7.6017   -1.2829 H        1 ZINC000022727009    0.2200
59     H59    -0.5993   -1.8041    0.4398 H        1 ZINC000022727009    0.1600
@<TRIPOS>BOND
1     1     2     1
2     1     37    1
3     1     38    1
4     1     39    1
5     2     33    ar
6     2     3     ar
7     3     4     ar
8     3     40    1
9     4     5     ar
10    4     41    1
11    5     6     1
12    5     32    ar
13    6     7     2
14    6     8     1
15    8     9     1
16    8     19    1
17    8     42    1
18    9     10    2
19    9     11    am
20    11    12    1
21    11    43    1
22    12    17    ar
23    12    13    ar
24    13    14    ar
25    13    44    1
26    14    15    ar
27    14    45    1
28    15    16    ar
29    15    46    1
30    16    17    ar
31    16    47    1
32    17    18    1
33    19    31    ar
34    19    20    ar
35    20    21    ar
36    20    48    1
37    21    22    ar
38    21    49    1
39    22    23    1
40    22    30    ar
41    23    24    1
42    23    50    1
43    23    51    1
44    24    29    ar
45    24    25    ar
46    25    26    ar
47    25    52    1
48    26    27    ar
49    26    53    1
50    27    28    ar
51    27    54    1
52    28    29    ar
53    28    55    1
54    29    56    1
55    30    31    ar
56    30    57    1
57    31    58    1
58    32    33    ar
59    32    59    1
60    33    34    1
61    34    35    2
62    34    36    2
@<TRIPOS>SUBSTRUCTURE
1   ZINC000022727009 1     RESIDUE    1   A     ZIN   1
@<TRIPOS>MOLECULE
ZINC000022735258
62    64    1     0     0
SMALL
USER_CHARGES
@<TRIPOS>ATOM
1      C1     -0.0187    1.5258    0.0104 C.3      1 ZINC000022735258   -0.1600
2      C2      0.0021   -0.0041    0.0020 C.3      1 ZINC000022735258   -0.1200
3      C3     -1.4333   -0.5336    0.0129 C.3      1 ZINC000022735258   -0.0700
4      C4     -2.1352   -0.1312   -1.2857 C.3      1 ZINC000022735258   -0.1200
5      C5     -3.6050   -0.5517   -1.2224 C.3      1 ZINC000022735258   -0.1600
6      C6     -1.4136   -2.0361    0.1285 C.ar     1 ZINC000022735258    0.0700
7      C7     -0.7827   -2.8135   -0.8307 C.ar     1 ZINC000022735258   -0.1200
8      C8     -0.7851   -4.1885   -0.6914 C.ar     1 ZINC000022735258    0.1300
9      N9     -1.3782   -4.7611    0.3378 N.ar     1 ZINC000022735258   -0.3400
10     C10    -1.3590   -6.2217    0.4502 C.3      1 ZINC000022735258    0.0600
11     C11    -0.6742   -6.6179    1.7328 C.2      1 ZINC000022735258    0.3900
12     O12    -1.3313   -6.8393    2.7276 O.2      1 ZINC000022735258   -0.3800
13     C13     0.7913   -6.7361    1.7779 C.ar     1 ZINC000022735258   -0.1700
14     C14     1.5527   -6.4758    0.6338 C.ar     1 ZINC000022735258   -0.0700
15     C15     2.9258   -6.5879    0.6830 C.ar     1 ZINC000022735258   -0.1000
16     C16     3.5524   -6.9574    1.8617 C.ar     1 ZINC000022735258    0.0100
17     Cl17    5.2821   -7.0955    1.9142 Cl       1 ZINC000022735258   -0.0100
18     C18     2.8044   -7.2172    3.0005 C.ar     1 ZINC000022735258   -0.0400
19     Cl19    3.5998   -7.6790    4.4728 Cl       1 ZINC000022735258   -0.0100
20     C20     1.4304   -7.1037    2.9670 C.ar     1 ZINC000022735258   -0.0200
21     C21    -2.7727   -6.7438    0.4534 C.2      1 ZINC000022735258    0.2300
22     S22    -4.0011   -5.7262    0.3436 S.2      1 ZINC000022735258   -0.3700
23     N23    -3.0015   -8.0686    0.5489 N.am     1 ZINC000022735258   -0.6200
24     C24    -4.3757   -8.5762    0.5521 C.3      1 ZINC000022735258    0.1100
25     C25    -4.3557  -10.1016    0.6694 C.3      1 ZINC000022735258   -0.0900
26     C26    -5.7693  -10.6237    0.6726 C.ar     1 ZINC000022735258   -0.1000
27     C27    -6.4507  -10.7665    1.8669 C.ar     1 ZINC000022735258   -0.1100
28     C28    -7.7474  -11.2455    1.8699 C.ar     1 ZINC000022735258   -0.1200
29     C29    -8.3629  -11.5813    0.6786 C.ar     1 ZINC000022735258   -0.1100
30     C30    -7.6819  -11.4376   -0.5158 C.ar     1 ZINC000022735258   -0.1200
31     C31    -6.3867  -10.9546   -0.5191 C.ar     1 ZINC000022735258   -0.1100
32     C32    -1.9877   -4.0535    1.2688 C.ar     1 ZINC000022735258    0.1800
33     C33    -2.0209   -2.6736    1.1995 C.ar     1 ZINC000022735258   -0.1200
34     H34     1.0039    1.9031    0.0027 H        1 ZINC000022735258    0.0600
35     H35    -0.5459    1.8868   -0.8726 H        1 ZINC000022735258    0.0600
36     H36    -0.5289    1.8773    0.9072 H        1 ZINC000022735258    0.0600
37     H37     0.5123   -0.3556   -0.8948 H        1 ZINC000022735258    0.0700
38     H38     0.5293   -0.3651    0.8851 H        1 ZINC000022735258    0.0700
39     H39    -1.9701   -0.1109    0.8621 H        1 ZINC000022735258    0.1100
40     H40    -2.0716    0.9494   -1.4133 H        1 ZINC000022735258    0.0900
41     H41    -1.6518   -0.6256   -2.1283 H        1 ZINC000022735258    0.0700
42     H42    -4.1050   -0.2650   -2.1476 H        1 ZINC000022735258    0.0700
43     H43    -3.6686   -1.6323   -1.0949 H        1 ZINC000022735258    0.0500
44     H44    -4.0884   -0.0573   -0.3798 H        1 ZINC000022735258    0.0600
45     H45    -0.2958   -2.3504   -1.6763 H        1 ZINC000022735258    0.1900
46     H46    -0.2959   -4.8011   -1.4342 H        1 ZINC000022735258    0.2000
47     H47    -0.8176   -6.6441   -0.3963 H        1 ZINC000022735258    0.1800
48     H48     1.0659   -6.1880   -0.2862 H        1 ZINC000022735258    0.1400
49     H49     3.5145   -6.3875   -0.2000 H        1 ZINC000022735258    0.1600
50     H50     0.8486   -7.3061    3.8541 H        1 ZINC000022735258    0.1600
51     H51    -2.2563   -8.6859    0.6155 H        1 ZINC000022735258    0.4100
52     H52    -4.9171   -8.1538    1.3985 H        1 ZINC000022735258    0.1100
53     H53    -4.8710   -8.2896   -0.3756 H        1 ZINC000022735258    0.1000
54     H54    -3.8143  -10.5240   -0.1771 H        1 ZINC000022735258    0.0800
55     H55    -3.8604  -10.3882    1.5971 H        1 ZINC000022735258    0.0800
56     H56    -5.9698  -10.5042    2.7977 H        1 ZINC000022735258    0.1200
57     H57    -8.2794  -11.3577    2.8030 H        1 ZINC000022735258    0.1300
58     H58    -9.3758  -11.9562    0.6810 H        1 ZINC000022735258    0.1300
59     H59    -8.1627  -11.7003   -1.4465 H        1 ZINC000022735258    0.1300
60     H60    -5.8546  -10.8424   -1.4522 H        1 ZINC000022735258    0.1200
61     H61    -2.4629   -4.5579    2.0971 H        1 ZINC000022735258    0.2000
62     H62    -2.5214   -2.0995    1.9652 H        1 ZINC000022735258    0.1900
@<TRIPOS>BOND
1     1     2     1
2     1     34    1
3     1     35    1
4     1     36    1
5     2     3     1
6     2     37    1
7     2     38    1
8     3     4     1
9     3     6     1
10    3     39    1
11    4     5     1
12    4     40    1
13    4     41    1
14    5     42    1
15    5     43    1
16    5     44    1
17    6     33    ar
18    6     7     ar
19    7     8     ar
20    7     45    1
21    8     9     ar
22    8     46    1
23    9     10    1
24    9     32    ar
25    10    11    1
26    10    21    1
27    10    47    1
28    11    12    2
29    11    13    1
30    13    20    ar
31    13    14    ar
32    14    15    ar
33    14    48    1
34    15    16    ar
35    15    49    1
36    16    17    1
37    16    18    ar
38    18    19    1
39    18    20    ar
40    20    50    1
41    21    22    2
42    21    23    am
43    23    24    1
44    23    51    1
45    24    25    1
46    24    52    1
47    24    53    1
48    25    26    1
49    25    54    1
50    25    55    1
51    26    31    ar
52    26    27    ar
53    27    28    ar
54    27    56    1
55    28    29    ar
56    28    57    1
57    29    30    ar
58    29    58    1
59    30    31    ar
60    30    59    1
61    31    60    1
62    32    33    ar
63    32    61    1
64    33    62    1
@<TRIPOS>SUBSTRUCTURE
1   ZINC000022735258 1     RESIDUE    1   A     ZIN   1
@<TRIPOS>MOLECULE
ZINC000022800406
58    60    1     0     0
SMALL
USER_CHARGES
@<TRIPOS>ATOM
1      C1     -0.6746    0.9796    0.9764 C.3      1 ZINC000022800406   -0.1400
2      C2     -0.5361   -0.4467    0.5099 C.ar     1 ZINC000022800406    0.0300
3      C3     -0.2326   -0.7114   -0.8141 C.ar     1 ZINC000022800406   -0.1200
4      C4     -0.1042   -2.0138   -1.2487 C.ar     1 ZINC000022800406   -0.0400
5      C5     -0.2810   -3.0683   -0.3476 C.ar     1 ZINC000022800406   -0.1900
6      C6     -0.1453   -4.4611   -0.8031 C.2      1 ZINC000022800406    0.3900
7      O7     -0.2993   -5.3732   -0.0190 O.2      1 ZINC000022800406   -0.3700
8      C8      0.1851   -4.7539   -2.2440 C.3      1 ZINC000022800406    0.0600
9      C9      0.8551   -6.1002   -2.3422 C.2      1 ZINC000022800406    0.2200
10     S10     0.0848   -7.3294   -3.0148 S.2      1 ZINC000022800406   -0.3200
11     N11     2.1036   -6.2681   -1.8631 N.am     1 ZINC000022800406   -0.5600
12     C12     2.7728   -7.4807   -2.0636 C.ar     1 ZINC000022800406    0.0900
13     C13     2.6687   -8.1390   -3.2818 C.ar     1 ZINC000022800406   -0.0400
14     C14     3.3303   -9.3357   -3.4783 C.ar     1 ZINC000022800406   -0.1300
15     C15     4.0968   -9.8793   -2.4620 C.ar     1 ZINC000022800406    0.1400
16     F16     4.7433  -11.0496   -2.6566 F        1 ZINC000022800406   -0.1100
17     C17     4.2024   -9.2243   -1.2450 C.ar     1 ZINC000022800406   -0.0700
18     Cl18    5.1650   -9.9080    0.0277 Cl       1 ZINC000022800406   -0.0200
19     C19     3.5464   -8.0244   -1.0464 C.ar     1 ZINC000022800406   -0.0700
20     N20    -1.0477   -4.7630   -3.0355 N.ar     1 ZINC000022800406   -0.3400
21     C21    -2.0001   -5.6225   -2.7305 C.ar     1 ZINC000022800406    0.1800
22     C22    -3.1768   -5.6600   -3.4544 C.ar     1 ZINC000022800406   -0.1200
23     C23    -3.3480   -4.7794   -4.5116 C.ar     1 ZINC000022800406    0.0700
24     C24    -4.6165   -4.7882   -5.3252 C.3      1 ZINC000022800406   -0.0500
25     C25    -5.8089   -4.4904   -4.4140 C.3      1 ZINC000022800406   -0.1500
26     C26    -4.5295   -3.7197   -6.4169 C.3      1 ZINC000022800406   -0.1600
27     C27    -4.7989   -6.1633   -5.9708 C.3      1 ZINC000022800406   -0.1500
28     C28    -2.3245   -3.8904   -4.8023 C.ar     1 ZINC000022800406   -0.1300
29     C29    -1.1780   -3.9079   -4.0308 C.ar     1 ZINC000022800406    0.1200
30     C30    -0.5871   -2.7925    0.9891 C.ar     1 ZINC000022800406    0.0200
31     C31    -0.7074   -1.4849    1.4092 C.ar     1 ZINC000022800406   -0.0400
32     N32    -1.0312   -1.1908    2.8231 N.pl3    1 ZINC000022800406    0.0100
33     O33    -0.5087   -0.2439    3.3833 O.2      1 ZINC000022800406   -0.1200
34     O34    -1.8203   -1.8956    3.4265 O.2      1 ZINC000022800406   -0.1400
35     H35     0.2698    1.3149    1.4052 H        1 ZINC000022800406    0.1100
36     H36    -0.9352    1.6150    0.1300 H        1 ZINC000022800406    0.0900
37     H37    -1.4584    1.0404    1.7314 H        1 ZINC000022800406    0.0900
38     H38    -0.0964    0.1042   -1.5088 H        1 ZINC000022800406    0.1700
39     H39     0.1320   -2.2188   -2.2825 H        1 ZINC000022800406    0.1400
40     H40     0.8566   -3.9851   -2.6262 H        1 ZINC000022800406    0.1800
41     H41     2.5383   -5.5485   -1.3794 H        1 ZINC000022800406    0.4200
42     H42     2.0705   -7.7158   -4.0751 H        1 ZINC000022800406    0.1500
43     H43     3.2490   -9.8478   -4.4257 H        1 ZINC000022800406    0.1600
44     H44     3.6289   -7.5138   -0.0983 H        1 ZINC000022800406    0.1500
45     H45    -1.8589   -6.3053   -1.9058 H        1 ZINC000022800406    0.2000
46     H46    -3.9531   -6.3665   -3.2000 H        1 ZINC000022800406    0.1900
47     H47    -5.6789   -3.5107   -3.9540 H        1 ZINC000022800406    0.0600
48     H48    -6.7264   -4.4967   -5.0024 H        1 ZINC000022800406    0.0800
49     H49    -5.8708   -5.2515   -3.6362 H        1 ZINC000022800406    0.0700
50     H50    -3.6801   -3.9319   -7.0661 H        1 ZINC000022800406    0.0700
51     H51    -5.4470   -3.7260   -7.0054 H        1 ZINC000022800406    0.0800
52     H52    -4.3996   -2.7401   -5.9570 H        1 ZINC000022800406    0.0700
53     H53    -4.8608   -6.9244   -5.1931 H        1 ZINC000022800406    0.0700
54     H54    -5.7164   -6.1696   -6.5592 H        1 ZINC000022800406    0.0800
55     H55    -3.9494   -6.3754   -6.6200 H        1 ZINC000022800406    0.0700
56     H56    -2.4235   -3.1906   -5.6190 H        1 ZINC000022800406    0.1900
57     H57    -0.3761   -3.2186   -4.2507 H        1 ZINC000022800406    0.2000
58     H58    -0.7255   -3.6016    1.6909 H        1 ZINC000022800406    0.1700
@<TRIPOS>BOND
1     1     2     1
2     1     35    1
3     1     36    1
4     1     37    1
5     2     31    ar
6     2     3     ar
7     3     4     ar
8     3     38    1
9     4     5     ar
10    4     39    1
11    5     6     1
12    5     30    ar
13    6     7     2
14    6     8     1
15    8     9     1
16    8     20    1
17    8     40    1
18    9     10    2
19    9     11    am
20    11    12    1
21    11    41    1
22    12    19    ar
23    12    13    ar
24    13    14    ar
25    13    42    1
26    14    15    ar
27    14    43    1
28    15    16    1
29    15    17    ar
30    17    18    1
31    17    19    ar
32    19    44    1
33    20    29    ar
34    20    21    ar
35    21    22    ar
36    21    45    1
37    22    23    ar
38    22    46    1
39    23    24    1
40    23    28    ar
41    24    25    1
42    24    26    1
43    24    27    1
44    25    47    1
45    25    48    1
46    25    49    1
47    26    50    1
48    26    51    1
49    26    52    1
50    27    53    1
51    27    54    1
52    27    55    1
53    28    29    ar
54    28    56    1
55    29    57    1
56    30    31    ar
57    30    58    1
58    31    32    1
59    32    33    2
60    32    34    2
@<TRIPOS>SUBSTRUCTURE
1   ZINC000022800406 1     RESIDUE    1   A     ZIN   1
@<TRIPOS>MOLECULE
ZINC000022730538
59    62    1     0     0
SMALL
USER_CHARGES
@<TRIPOS>ATOM
1      C1     -0.6749    0.9794    0.9766 C.3      1 ZINC000022730538   -0.1400
2      C2     -0.5363   -0.4468    0.5100 C.ar     1 ZINC000022730538    0.0300
3      C3     -0.2326   -0.7114   -0.8139 C.ar     1 ZINC000022730538   -0.1200
4      C4     -0.1042   -2.0138   -1.2487 C.ar     1 ZINC000022730538   -0.0400
5      C5     -0.2812   -3.0684   -0.3476 C.ar     1 ZINC000022730538   -0.1900
6      C6     -0.1454   -4.4612   -0.8032 C.2      1 ZINC000022730538    0.3900
7      O7     -0.2995   -5.3733   -0.0193 O.2      1 ZINC000022730538   -0.3700
8      C8      0.1853   -4.7538   -2.2441 C.3      1 ZINC000022730538    0.0600
9      C9      0.8553   -6.1001   -2.3423 C.2      1 ZINC000022730538    0.2200
10     S10     0.0851   -7.3293   -3.0152 S.2      1 ZINC000022730538   -0.3300
11     N11     2.1037   -6.2681   -1.8630 N.am     1 ZINC000022730538   -0.5600
12     C12     2.7729   -7.4808   -2.0634 C.ar     1 ZINC000022730538    0.0700
13     C13     2.6689   -8.1393   -3.2817 C.ar     1 ZINC000022730538   -0.0500
14     C14     3.3301   -9.3359   -3.4774 C.ar     1 ZINC000022730538   -0.1400
15     C15     4.0960   -9.8794   -2.4597 C.ar     1 ZINC000022730538    0.1300
16     F16     4.7420  -11.0500   -2.6532 F        1 ZINC000022730538   -0.1200
17     C17     4.2011   -9.2244   -1.2442 C.ar     1 ZINC000022730538   -0.1400
18     C18     3.5465   -8.0244   -1.0463 C.ar     1 ZINC000022730538   -0.0700
19     N19    -1.0473   -4.7629   -3.0359 N.ar     1 ZINC000022730538   -0.3400
20     C20    -1.9998   -5.6224   -2.7312 C.ar     1 ZINC000022730538    0.1800
21     C21    -3.1764   -5.6598   -3.4553 C.ar     1 ZINC000022730538   -0.1200
22     C22    -3.3473   -4.7791   -4.5125 C.ar     1 ZINC000022730538    0.0600
23     C23    -4.6157   -4.7877   -5.3263 C.3      1 ZINC000022730538   -0.0600
24     C24    -5.6130   -3.8394   -4.7123 C.ar     1 ZINC000022730538   -0.1000
25     C25    -6.4952   -4.2923   -3.7493 C.ar     1 ZINC000022730538   -0.1100
26     C26    -7.4100   -3.4224   -3.1860 C.ar     1 ZINC000022730538   -0.1100
27     C27    -7.4423   -2.0994   -3.5855 C.ar     1 ZINC000022730538   -0.1100
28     C28    -6.5595   -1.6463   -4.5479 C.ar     1 ZINC000022730538   -0.1200
29     C29    -5.6418   -2.5152   -5.1080 C.ar     1 ZINC000022730538   -0.1100
30     C30    -2.3238   -3.8900   -4.8028 C.ar     1 ZINC000022730538   -0.1200
31     C31    -1.1774   -3.9076   -4.0311 C.ar     1 ZINC000022730538    0.1200
32     C32    -0.5875   -2.7927    0.9890 C.ar     1 ZINC000022730538    0.0200
33     C33    -0.7079   -1.4852    1.4092 C.ar     1 ZINC000022730538   -0.0400
34     N34    -1.0320   -1.1912    2.8231 N.pl3    1 ZINC000022730538    0.0100
35     O35    -0.5095   -0.2443    3.3834 O.2      1 ZINC000022730538   -0.1200
36     O36    -1.8212   -1.8961    3.4263 O.2      1 ZINC000022730538   -0.1400
37     H37     0.2693    1.3147    1.4057 H        1 ZINC000022730538    0.1100
38     H38    -0.9354    1.6149    0.1302 H        1 ZINC000022730538    0.0900
39     H39    -1.4589    1.0401    1.7315 H        1 ZINC000022730538    0.0900
40     H40    -0.0962    0.1042   -1.5086 H        1 ZINC000022730538    0.1700
41     H41     0.1322   -2.2188   -2.2824 H        1 ZINC000022730538    0.1400
42     H42     0.8569   -3.9850   -2.6261 H        1 ZINC000022730538    0.1800
43     H43     2.5384   -5.5485   -1.3791 H        1 ZINC000022730538    0.4200
44     H44     2.0711   -7.7161   -4.0754 H        1 ZINC000022730538    0.1500
45     H45     3.2494   -9.8484   -4.4246 H        1 ZINC000022730538    0.1500
46     H46     4.7987   -9.6501   -0.4517 H        1 ZINC000022730538    0.1500
47     H47     3.6290   -7.5137   -0.0983 H        1 ZINC000022730538    0.1400
48     H48    -1.8588   -6.3053   -1.9064 H        1 ZINC000022730538    0.2000
49     H49    -3.9527   -6.3662   -3.2011 H        1 ZINC000022730538    0.1900
50     H50    -4.3951   -4.4728   -6.3462 H        1 ZINC000022730538    0.1100
51     H51    -5.0323   -5.7949   -5.3391 H        1 ZINC000022730538    0.1100
52     H52    -6.4699   -5.3259   -3.4372 H        1 ZINC000022730538    0.1300
53     H53    -8.0997   -3.7764   -2.4341 H        1 ZINC000022730538    0.1300
54     H54    -8.1575   -1.4199   -3.1460 H        1 ZINC000022730538    0.1300
55     H55    -6.5849   -0.6127   -4.8602 H        1 ZINC000022730538    0.1300
56     H56    -4.9521   -2.1611   -5.8599 H        1 ZINC000022730538    0.1200
57     H57    -2.4226   -3.1902   -5.6195 H        1 ZINC000022730538    0.1900
58     H58    -0.3755   -3.2183   -4.2508 H        1 ZINC000022730538    0.2000
59     H59    -0.7261   -3.6019    1.6907 H        1 ZINC000022730538    0.1700
@<TRIPOS>BOND
1     1     2     1
2     1     37    1
3     1     38    1
4     1     39    1
5     2     33    ar
6     2     3     ar
7     3     4     ar
8     3     40    1
9     4     5     ar
10    4     41    1
11    5     6     1
12    5     32    ar
13    6     7     2
14    6     8     1
15    8     9     1
16    8     19    1
17    8     42    1
18    9     10    2
19    9     11    am
20    11    12    1
21    11    43    1
22    12    18    ar
23    12    13    ar
24    13    14    ar
25    13    44    1
26    14    15    ar
27    14    45    1
28    15    16    1
29    15    17    ar
30    17    18    ar
31    17    46    1
32    18    47    1
33    19    31    ar
34    19    20    ar
35    20    21    ar
36    20    48    1
37    21    22    ar
38    21    49    1
39    22    23    1
40    22    30    ar
41    23    24    1
42    23    50    1
43    23    51    1
44    24    29    ar
45    24    25    ar
46    25    26    ar
47    25    52    1
48    26    27    ar
49    26    53    1
50    27    28    ar
51    27    54    1
52    28    29    ar
53    28    55    1
54    29    56    1
55    30    31    ar
56    30    57    1
57    31    58    1
58    32    33    ar
59    32    59    1
60    33    34    1
61    34    35    2
62    34    36    2
@<TRIPOS>SUBSTRUCTURE
1   ZINC000022730538 1     RESIDUE    1   A     ZIN   1
@<TRIPOS>MOLECULE
ZINC000022731086
58    61    1     0     0
SMALL
USER_CHARGES
@<TRIPOS>ATOM
1      C1      2.7197   -2.3197    4.4032 C.3      1 ZINC000022731086   -0.1600
2      C2      1.9606   -3.0518    3.2948 C.3      1 ZINC000022731086    0.0500
3      O3      2.8768   -3.4504    2.2731 O.3      1 ZINC000022731086   -0.3000
4      C4      2.3616   -4.1165    1.2095 C.ar     1 ZINC000022731086    0.1900
5      C5      0.9965   -4.3759    1.1493 C.ar     1 ZINC000022731086   -0.2200
6      C6      0.4707   -5.0488    0.0765 C.ar     1 ZINC000022731086    0.0100
7      C7      1.3107   -5.4746   -0.9599 C.ar     1 ZINC000022731086   -0.2200
8      C8      0.7529   -6.1952   -2.1115 C.2      1 ZINC000022731086    0.4300
9      O9     -0.4373   -6.4226   -2.1661 O.2      1 ZINC000022731086   -0.4100
10     C10     1.6592   -6.6522   -3.2254 C.3      1 ZINC000022731086    0.0600
11     C11     2.2699   -7.9814   -2.8628 C.2      1 ZINC000022731086    0.2000
12     S12     1.6285   -8.8635   -1.6935 S.2      1 ZINC000022731086   -0.2700
13     N13     3.3566   -8.4265   -3.5240 N.am     1 ZINC000022731086   -0.5800
14     C14     3.8657   -9.7020   -3.2550 C.ar     1 ZINC000022731086    0.1000
15     C15     4.0492  -10.1150   -1.9424 C.ar     1 ZINC000022731086   -0.0400
16     C16     4.5514  -11.3748   -1.6794 C.ar     1 ZINC000022731086   -0.0900
17     C17     4.8720  -12.2252   -2.7227 C.ar     1 ZINC000022731086    0.0000
18     Cl18    5.5033  -13.8073   -2.3879 Cl       1 ZINC000022731086   -0.0300
19     C19     4.6899  -11.8171   -4.0326 C.ar     1 ZINC000022731086   -0.1000
20     C20     4.1830  -10.5602   -4.3016 C.ar     1 ZINC000022731086   -0.0200
21     Cl21    3.9547  -10.0485   -5.9447 Cl       1 ZINC000022731086   -0.0500
22     N22     0.8832   -6.7920   -4.4601 N.ar     1 ZINC000022731086   -0.3300
23     C23    -0.1314   -7.6336   -4.4899 C.ar     1 ZINC000022731086    0.1400
24     C24    -0.8810   -7.7904   -5.6392 C.ar     1 ZINC000022731086   -0.1200
25     C25    -0.5559   -7.0502   -6.7703 C.ar     1 ZINC000022731086    0.0500
26     C26    -1.3728   -7.2417   -8.0178 C.3      1 ZINC000022731086   -0.1100
27     C27    -1.1556   -6.0766   -8.9826 C.3      1 ZINC000022731086   -0.1300
28     C28     0.3526   -5.8744   -9.1689 C.3      1 ZINC000022731086   -0.1300
29     C29     0.9332   -5.3249   -7.8667 C.3      1 ZINC000022731086   -0.0900
30     C30     0.5081   -6.1760   -6.7009 C.ar     1 ZINC000022731086   -0.0700
31     C31     1.2130   -6.0699   -5.5110 C.ar     1 ZINC000022731086    0.1100
32     C32     2.6844   -5.2104   -0.8946 C.ar     1 ZINC000022731086   -0.0400
33     C33     3.1994   -4.5326    0.1803 C.ar     1 ZINC000022731086   -0.1600
34     H34     3.4718   -2.9842    4.8286 H        1 ZINC000022731086    0.0700
35     H35     3.2073   -1.4376    3.9881 H        1 ZINC000022731086    0.0700
36     H36     2.0209   -2.0156    5.1825 H        1 ZINC000022731086    0.0900
37     H37     1.4730   -3.9339    3.7098 H        1 ZINC000022731086    0.0700
38     H38     1.2086   -2.3873    2.8693 H        1 ZINC000022731086    0.0700
39     H39     0.3496   -4.0471    1.9492 H        1 ZINC000022731086    0.1400
40     H40    -0.5894   -5.2503    0.0311 H        1 ZINC000022731086    0.1400
41     H41     2.4503   -5.9175   -3.3747 H        1 ZINC000022731086    0.1700
42     H42     3.7860   -7.8628   -4.1864 H        1 ZINC000022731086    0.4100
43     H43     3.7999   -9.4516   -1.1274 H        1 ZINC000022731086    0.1600
44     H44     4.6942  -11.6962   -0.6583 H        1 ZINC000022731086    0.1600
45     H45     4.9410  -12.4829   -4.8451 H        1 ZINC000022731086    0.1600
46     H46    -0.3783   -8.2058   -3.6078 H        1 ZINC000022731086    0.2100
47     H47    -1.7109   -8.4812   -5.6592 H        1 ZINC000022731086    0.1900
48     H48    -1.0767   -8.1716   -8.5033 H        1 ZINC000022731086    0.1100
49     H49    -2.4285   -7.2976   -7.7523 H        1 ZINC000022731086    0.1100
50     H50    -1.6158   -6.3062   -9.9437 H        1 ZINC000022731086    0.0900
51     H51    -1.5981   -5.1706   -8.5685 H        1 ZINC000022731086    0.0800
52     H52     0.8234   -6.8286   -9.4058 H        1 ZINC000022731086    0.0700
53     H53     0.5299   -5.1648   -9.9770 H        1 ZINC000022731086    0.0900
54     H54     2.0213   -5.3196   -7.9311 H        1 ZINC000022731086    0.1000
55     H55     0.5791   -4.3050   -7.7164 H        1 ZINC000022731086    0.1100
56     H56     2.0478   -5.3877   -5.4465 H        1 ZINC000022731086    0.2100
57     H57     3.3365   -5.5370   -1.6912 H        1 ZINC000022731086    0.1200
58     H58     4.2586   -4.3280    0.2314 H        1 ZINC000022731086    0.1500
@<TRIPOS>BOND
1     1     2     1
2     1     34    1
3     1     35    1
4     1     36    1
5     2     3     1
6     2     37    1
7     2     38    1
8     3     4     1
9     4     33    ar
10    4     5     ar
11    5     6     ar
12    5     39    1
13    6     7     ar
14    6     40    1
15    7     8     1
16    7     32    ar
17    8     9     2
18    8     10    1
19    10    11    1
20    10    22    1
21    10    41    1
22    11    12    2
23    11    13    am
24    13    14    1
25    13    42    1
26    14    20    ar
27    14    15    ar
28    15    16    ar
29    15    43    1
30    16    17    ar
31    16    44    1
32    17    18    1
33    17    19    ar
34    19    20    ar
35    19    45    1
36    20    21    1
37    22    31    ar
38    22    23    ar
39    23    24    ar
40    23    46    1
41    24    25    ar
42    24    47    1
43    25    30    ar
44    25    26    1
45    26    27    1
46    26    48    1
47    26    49    1
48    27    28    1
49    27    50    1
50    27    51    1
51    28    29    1
52    28    52    1
53    28    53    1
54    29    30    1
55    29    54    1
56    29    55    1
57    30    31    ar
58    31    56    1
59    32    33    ar
60    32    57    1
61    33    58    1
@<TRIPOS>SUBSTRUCTURE
1   ZINC000022731086 1     RESIDUE    1   A     ZIN   1
@<TRIPOS>MOLECULE
ZINC000022734839
62    64    1     0     0
SMALL
USER_CHARGES
@<TRIPOS>ATOM
1      C1     -0.0187    1.5258    0.0104 C.3      1 ZINC000022734839   -0.1600
2      C2      0.0021   -0.0041    0.0020 C.3      1 ZINC000022734839   -0.1200
3      C3      0.7182   -0.4975   -1.2568 C.3      1 ZINC000022734839   -0.0700
4      C4      2.1873   -0.0730   -1.2073 C.3      1 ZINC000022734839   -0.1200
5      C5      2.8736   -0.4567   -2.5198 C.3      1 ZINC000022734839   -0.1600
6      C6      0.6316   -2.0003   -1.3275 C.ar     1 ZINC000022734839    0.0700
7      C7      1.1592   -2.7900   -0.3173 C.ar     1 ZINC000022734839   -0.1200
8      C8      1.0611   -4.1649   -0.4165 C.ar     1 ZINC000022734839    0.1200
9      N9      0.4751   -4.7261   -1.4560 N.ar     1 ZINC000022734839   -0.3300
10     C10     0.3910   -6.1871   -1.5248 C.3      1 ZINC000022734839    0.0600
11     C11    -1.0559   -6.6048   -1.5810 C.2      1 ZINC000022734839    0.3800
12     O12    -1.5857   -6.8132   -2.6518 O.2      1 ZINC000022734839   -0.3600
13     C13    -1.8250   -6.7598   -0.3380 C.ar     1 ZINC000022734839   -0.1800
14     C14    -1.2188   -6.5149    0.8991 C.ar     1 ZINC000022734839   -0.0600
15     C15    -1.9459   -6.6622    2.0602 C.ar     1 ZINC000022734839   -0.1100
16     C16    -3.2748   -7.0521    2.0059 C.ar     1 ZINC000022734839    0.0200
17     Cl17   -4.1819   -7.2342    3.4748 Cl       1 ZINC000022734839   -0.0200
18     C18    -3.8830   -7.2967    0.7858 C.ar     1 ZINC000022734839   -0.1100
19     C19    -3.1699   -7.1480   -0.3861 C.ar     1 ZINC000022734839    0.0400
20     Cl20   -3.9335   -7.4543   -1.9147 Cl       1 ZINC000022734839    0.0000
21     C21     1.1027   -6.6736   -2.7608 C.2      1 ZINC000022734839    0.2300
22     S22     1.7959   -5.6251   -3.7492 S.2      1 ZINC000022734839   -0.3700
23     N23     1.1550   -7.9925   -3.0332 N.am     1 ZINC000022734839   -0.6100
24     C24     1.8469   -8.4655   -4.2347 C.3      1 ZINC000022734839    0.1100
25     C25     1.7591   -9.9913   -4.3066 C.3      1 ZINC000022734839   -0.0900
26     C26     2.4708  -10.4778   -5.5426 C.ar     1 ZINC000022734839   -0.1000
27     C27     1.7792  -10.6076   -6.7324 C.ar     1 ZINC000022734839   -0.1100
28     C28     2.4321  -11.0539   -7.8662 C.ar     1 ZINC000022734839   -0.1200
29     C29     3.7766  -11.3699   -7.8103 C.ar     1 ZINC000022734839   -0.1100
30     C30     4.4685  -11.2393   -6.6207 C.ar     1 ZINC000022734839   -0.1200
31     C31     3.8166  -10.7889   -5.4879 C.ar     1 ZINC000022734839   -0.1100
32     C32    -0.0376   -4.0067   -2.4351 C.ar     1 ZINC000022734839    0.1800
33     C33     0.0175   -2.6261   -2.4016 C.ar     1 ZINC000022734839   -0.1300
34     H34     1.0039    1.9031    0.0027 H        1 ZINC000022734839    0.0600
35     H35    -0.5459    1.8868   -0.8726 H        1 ZINC000022734839    0.0600
36     H36    -0.5289    1.8773    0.9072 H        1 ZINC000022734839    0.0600
37     H37     0.5293   -0.3651    0.8851 H        1 ZINC000022734839    0.0700
38     H38    -1.0205   -0.3814    0.0098 H        1 ZINC000022734839    0.0700
39     H39     0.2444   -0.0644   -2.1377 H        1 ZINC000022734839    0.1000
40     H40     2.2492    1.0061   -1.0668 H        1 ZINC000022734839    0.0900
41     H41     2.6832   -0.5765   -0.3773 H        1 ZINC000022734839    0.0700
42     H42     3.9202   -0.1543   -2.4845 H        1 ZINC000022734839    0.0700
43     H43     2.8117   -1.5358   -2.6603 H        1 ZINC000022734839    0.0500
44     H44     2.3777    0.0468   -3.3497 H        1 ZINC000022734839    0.0600
45     H45     1.6409   -2.3363    0.5363 H        1 ZINC000022734839    0.1900
46     H46     1.4695   -4.7870    0.3662 H        1 ZINC000022734839    0.2000
47     H47     0.8601   -6.6200   -0.6413 H        1 ZINC000022734839    0.1800
48     H48    -0.1833   -6.2113    0.9438 H        1 ZINC000022734839    0.1400
49     H49    -1.4788   -6.4737    3.0155 H        1 ZINC000022734839    0.1600
50     H50    -4.9189   -7.6002    0.7514 H        1 ZINC000022734839    0.1600
51     H51     0.7345   -8.6286   -2.4336 H        1 ZINC000022734839    0.4100
52     H52     1.3778   -8.0326   -5.1183 H        1 ZINC000022734839    0.1100
53     H53     2.8934   -8.1633   -4.1941 H        1 ZINC000022734839    0.1000
54     H54     2.2282  -10.4242   -3.4230 H        1 ZINC000022734839    0.0800
55     H55     0.7126  -10.2934   -4.3472 H        1 ZINC000022734839    0.0800
56     H56     0.7287  -10.3607   -6.7761 H        1 ZINC000022734839    0.1200
57     H57     1.8916  -11.1560   -8.7957 H        1 ZINC000022734839    0.1300
58     H58     4.2866  -11.7193   -8.6959 H        1 ZINC000022734839    0.1300
59     H59     5.5189  -11.4865   -6.5769 H        1 ZINC000022734839    0.1300
60     H60     4.3571  -10.6868   -4.5585 H        1 ZINC000022734839    0.1200
61     H61    -0.5096   -4.5019   -3.2707 H        1 ZINC000022734839    0.2000
62     H62    -0.4045   -2.0423   -3.2063 H        1 ZINC000022734839    0.1900
@<TRIPOS>BOND
1     1     2     1
2     1     34    1
3     1     35    1
4     1     36    1
5     2     3     1
6     2     37    1
7     2     38    1
8     3     4     1
9     3     6     1
10    3     39    1
11    4     5     1
12    4     40    1
13    4     41    1
14    5     42    1
15    5     43    1
16    5     44    1
17    6     33    ar
18    6     7     ar
19    7     8     ar
20    7     45    1
21    8     9     ar
22    8     46    1
23    9     10    1
24    9     32    ar
25    10    11    1
26    10    21    1
27    10    47    1
28    11    12    2
29    11    13    1
30    13    19    ar
31    13    14    ar
32    14    15    ar
33    14    48    1
34    15    16    ar
35    15    49    1
36    16    17    1
37    16    18    ar
38    18    19    ar
39    18    50    1
40    19    20    1
41    21    22    2
42    21    23    am
43    23    24    1
44    23    51    1
45    24    25    1
46    24    52    1
47    24    53    1
48    25    26    1
49    25    54    1
50    25    55    1
51    26    31    ar
52    26    27    ar
53    27    28    ar
54    27    56    1
55    28    29    ar
56    28    57    1
57    29    30    ar
58    29    58    1
59    30    31    ar
60    30    59    1
61    31    60    1
62    32    33    ar
63    32    61    1
64    33    62    1
@<TRIPOS>SUBSTRUCTURE
1   ZINC000022734839 1     RESIDUE    1   A     ZIN   1
@<TRIPOS>MOLECULE
ZINC000022733112
58    61    1     0     0
SMALL
USER_CHARGES
@<TRIPOS>ATOM
1      C1     -4.2249   -4.4171   -4.4771 C.3      1 ZINC000022733112   -0.1600
2      C2     -3.2350   -5.2332   -3.6434 C.3      1 ZINC000022733112    0.0500
3      O3     -2.8865   -4.5013   -2.4666 O.3      1 ZINC000022733112   -0.3000
4      C4     -2.0111   -5.0886   -1.6127 C.ar     1 ZINC000022733112    0.2000
5      C5     -1.4931   -6.3453   -1.9072 C.ar     1 ZINC000022733112   -0.2200
6      C6     -0.6079   -6.9432   -1.0475 C.ar     1 ZINC000022733112    0.0100
7      C7     -0.2253   -6.2861    0.1285 C.ar     1 ZINC000022733112   -0.2400
8      C8      0.7227   -6.9216    1.0526 C.2      1 ZINC000022733112    0.4000
9      O9      1.1758   -8.0176    0.7979 O.2      1 ZINC000022733112   -0.4300
10     C10     1.1327   -6.2122    2.3174 C.3      1 ZINC000022733112    0.0600
11     C11     0.1874   -6.5837    3.4308 C.2      1 ZINC000022733112    0.2000
12     S12    -0.3855   -5.4520    4.4042 S.2      1 ZINC000022733112   -0.2600
13     N13    -0.1750   -7.8700    3.6059 N.am     1 ZINC000022733112   -0.6000
14     C14    -1.1456   -8.1996    4.5571 C.ar     1 ZINC000022733112    0.1100
15     C15    -0.9764   -7.8227    5.8831 C.ar     1 ZINC000022733112   -0.0600
16     C16    -1.9376   -8.1494    6.8212 C.ar     1 ZINC000022733112   -0.0200
17     Cl17   -1.7269   -7.6787    8.4788 Cl       1 ZINC000022733112   -0.0300
18     C18    -3.0680   -8.8509    6.4401 C.ar     1 ZINC000022733112   -0.0800
19     C19    -3.2391   -9.2276    5.1196 C.ar     1 ZINC000022733112   -0.0200
20     Cl20   -4.6588  -10.1071    4.6457 Cl       1 ZINC000022733112   -0.0300
21     C21    -2.2833   -8.8993    4.1765 C.ar     1 ZINC000022733112   -0.0900
22     N22     2.4952   -6.6096    2.6806 N.ar     1 ZINC000022733112   -0.3300
23     C23     2.7320   -7.8634    3.0130 C.ar     1 ZINC000022733112    0.1200
24     C24     4.0048   -8.2692    3.3629 C.ar     1 ZINC000022733112   -0.1100
25     C25     5.0398   -7.3409    3.3621 C.ar     1 ZINC000022733112    0.0500
26     C26     6.4172   -7.7949    3.7583 C.3      1 ZINC000022733112   -0.1100
27     C27     7.4663   -6.7843    3.2961 C.3      1 ZINC000022733112   -0.1300
28     C28     7.0372   -5.3893    3.7652 C.3      1 ZINC000022733112   -0.1300
29     C29     5.8077   -4.9644    2.9636 C.3      1 ZINC000022733112   -0.0900
30     C30     4.7562   -6.0400    3.0040 C.ar     1 ZINC000022733112   -0.0700
31     C31     3.4539   -5.7068    2.6617 C.ar     1 ZINC000022733112    0.1300
32     C32    -0.7495   -5.0207    0.4200 C.ar     1 ZINC000022733112   -0.0300
33     C33    -1.6303   -4.4294   -0.4488 C.ar     1 ZINC000022733112   -0.1600
34     H34    -3.7664   -3.4698   -4.7609 H        1 ZINC000022733112    0.0700
35     H35    -4.4907   -4.9754   -5.3748 H        1 ZINC000022733112    0.0900
36     H36    -5.1227   -4.2248   -3.8897 H        1 ZINC000022733112    0.0700
37     H37    -3.6935   -6.1805   -3.3596 H        1 ZINC000022733112    0.0700
38     H38    -2.3372   -5.4256   -4.2308 H        1 ZINC000022733112    0.0700
39     H39    -1.7888   -6.8512   -2.8144 H        1 ZINC000022733112    0.1500
40     H40    -0.2068   -7.9194   -1.2767 H        1 ZINC000022733112    0.1400
41     H41     1.0991   -5.1346    2.1568 H        1 ZINC000022733112    0.1900
42     H42     0.2374   -8.5671    3.0722 H        1 ZINC000022733112    0.4100
43     H43    -0.0944   -7.2752    6.1810 H        1 ZINC000022733112    0.1500
44     H44    -3.8178   -9.1051    7.1747 H        1 ZINC000022733112    0.1600
45     H45    -2.4173   -9.1936    3.1460 H        1 ZINC000022733112    0.1500
46     H46     1.9234   -8.5793    3.0119 H        1 ZINC000022733112    0.1900
47     H47     4.1942   -9.2971    3.6348 H        1 ZINC000022733112    0.1900
48     H48     6.4658   -7.8943    4.8427 H        1 ZINC000022733112    0.1100
49     H49     6.6231   -8.7627    3.3011 H        1 ZINC000022733112    0.1100
50     H50     8.4336   -7.0355    3.7312 H        1 ZINC000022733112    0.0900
51     H51     7.5355   -6.7997    2.2084 H        1 ZINC000022733112    0.0800
52     H52     6.7898   -5.4198    4.8264 H        1 ZINC000022733112    0.0800
53     H53     7.8477   -4.6805    3.5956 H        1 ZINC000022733112    0.0900
54     H54     5.4006   -4.0465    3.3875 H        1 ZINC000022733112    0.1000
55     H55     6.0974   -4.7824    1.9287 H        1 ZINC000022733112    0.1100
56     H56     3.2217   -4.6905    2.3794 H        1 ZINC000022733112    0.2100
57     H57    -0.4579   -4.5099    1.3258 H        1 ZINC000022733112    0.1400
58     H58    -2.0349   -3.4533   -0.2251 H        1 ZINC000022733112    0.1500
@<TRIPOS>BOND
1     1     2     1
2     1     34    1
3     1     35    1
4     1     36    1
5     2     3     1
6     2     37    1
7     2     38    1
8     3     4     1
9     4     33    ar
10    4     5     ar
11    5     6     ar
12    5     39    1
13    6     7     ar
14    6     40    1
15    7     8     1
16    7     32    ar
17    8     9     2
18    8     10    1
19    10    11    1
20    10    22    1
21    10    41    1
22    11    12    2
23    11    13    am
24    13    14    1
25    13    42    1
26    14    21    ar
27    14    15    ar
28    15    16    ar
29    15    43    1
30    16    17    1
31    16    18    ar
32    18    19    ar
33    18    44    1
34    19    20    1
35    19    21    ar
36    21    45    1
37    22    31    ar
38    22    23    ar
39    23    24    ar
40    23    46    1
41    24    25    ar
42    24    47    1
43    25    30    ar
44    25    26    1
45    26    27    1
46    26    48    1
47    26    49    1
48    27    28    1
49    27    50    1
50    27    51    1
51    28    29    1
52    28    52    1
53    28    53    1
54    29    30    1
55    29    54    1
56    29    55    1
57    30    31    ar
58    31    56    1
59    32    33    ar
60    32    57    1
61    33    58    1
@<TRIPOS>SUBSTRUCTURE
1   ZINC000022733112 1     RESIDUE    1   A     ZIN   1