REMARK  13 active torsions:
REMARK  status: ('A' for Active; 'I' for Inactive)
REMARK    1  A    between atoms: C1_1  and  O1_2 
REMARK    2  A    between atoms: C1_1  and  C13_15 
REMARK    3  A    between atoms: O1_2  and  C2_3 
REMARK    4  A    between atoms: C2_3  and  C3_4 
REMARK    5  A    between atoms: C2_3  and  C9_10 
REMARK    6  A    between atoms: C3_4  and  C4_5 
REMARK    7  A    between atoms: C4_5  and  C5_6 
REMARK    8  A    between atoms: C9_10  and  C10_11 
REMARK    9  A    between atoms: C10_11  and  C12_13 
REMARK   10  A    between atoms: C12_13  and  O2_14 
REMARK   11  A    between atoms: C13_15  and  C15_17 
REMARK   12  A    between atoms: C15_17  and  C16_18 
REMARK   13  A    between atoms: C16_18  and  C17_20 
ROOT
HETATM    1  C2  UNL     1      -0.717   0.342  -0.180  1.00  0.00     0.125 C 
ENDROOT
BRANCH   1   2
HETATM    2  O1  UNL     1       0.437   0.020   0.620  1.00  0.00    -0.385 OA
BRANCH   2   3
HETATM    3  C1  UNL     1       1.526   0.919   0.417  1.00  0.00     0.172 C 
BRANCH   3   4
HETATM    4  C13 UNL     1       2.640   0.602   1.425  1.00  0.00     0.008 C 
HETATM    5  C14 UNL     1       2.116   0.734   2.863  1.00  0.00     0.012 C 
BRANCH   4   6
HETATM    6  C15 UNL     1       3.865   1.515   1.245  1.00  0.00     0.046 C 
BRANCH   6   7
HETATM    7  C16 UNL     1       4.574   1.465  -0.113  1.00  0.00     0.204 C 
HETATM    8  F1  UNL     1       5.598   2.372  -0.050  1.00  0.00    -0.246 F 
BRANCH   7   9
HETATM    9  C17 UNL     1       5.162   0.098  -0.460  1.00  0.00     0.200 C 
HETATM   10  F2  UNL     1       4.150  -0.784  -0.692  1.00  0.00    -0.247 F 
HETATM   11  C18 UNL     1       6.023   0.145  -1.711  1.00  0.00     0.048 C 
ENDBRANCH   7   9
ENDBRANCH   6   7
ENDBRANCH   4   6
ENDBRANCH   3   4
ENDBRANCH   2   3
ENDBRANCH   1   2
BRANCH   1  12
HETATM   12  C3  UNL     1      -1.343  -0.988  -0.680  1.00  0.00     0.011 C 
HETATM   13  C8  UNL     1      -0.362  -1.671  -1.649  1.00  0.00     0.012 C 
BRANCH  12  14
HETATM   14  C4  UNL     1      -1.708  -1.963   0.468  1.00  0.00     0.010 C 
BRANCH  14  15
HETATM   15  C5  UNL     1      -3.117  -2.580   0.337  1.00  0.00    -0.022 C 
HETATM   16  C6  UNL     1      -3.442  -3.397   1.592  1.00  0.00     0.009 C 
HETATM   17  C7  UNL     1      -3.268  -3.465  -0.901  1.00  0.00     0.009 C 
ENDBRANCH  14  15
ENDBRANCH  12  14
ENDBRANCH   1  12
BRANCH   1  18
HETATM   18  C9  UNL     1      -1.651   1.213   0.686  1.00  0.00     0.038 C 
BRANCH  18  19
HETATM   19  C10 UNL     1      -3.004   1.627   0.072  1.00  0.00     0.007 C 
HETATM   20  C11 UNL     1      -3.855   2.311   1.149  1.00  0.00     0.012 C 
BRANCH  19  21
HETATM   21  C12 UNL     1      -2.855   2.570  -1.129  1.00  0.00     0.168 C 
BRANCH  21  22
HETATM   22  O2  UNL     1      -2.293   1.885  -2.238  1.00  0.00    -0.400 OA
HETATM   23  H25 UNL     1      -2.279   2.511  -2.982  1.00  0.00     0.209 HD
ENDBRANCH  21  22
ENDBRANCH  19  21
ENDBRANCH  18  19
ENDBRANCH   1  18
TORSDOF 13
