REMARK  7 active torsions:
REMARK  status: ('A' for Active; 'I' for Inactive)
REMARK    1  A    between atoms: C1_1  and  N1_2 
REMARK    2  A    between atoms: C1_1  and  C9_11 
REMARK    3  A    between atoms: N1_2  and  C2_3 
REMARK    4  A    between atoms: N1_2  and  C3_5 
REMARK    5  A    between atoms: C2_3  and  O1_4 
REMARK    6  A    between atoms: C3_5  and  C5_7 
REMARK    7  A    between atoms: C5_7  and  C6_8 
ROOT
HETATM    1  N1  UNL     1      -0.478  -0.812  -0.420  1.00  0.00     0.115 N 
ENDROOT
BRANCH   1   2
HETATM    2  C1  UNL     1      -1.335  -0.567   0.764  1.00  0.00     0.279 C 
BRANCH   2   3
HETATM    3  C9  UNL     1      -2.551   0.364   0.526  1.00  0.00     0.006 C 
HETATM    4  C10 UNL     1      -2.139   1.725  -0.037  1.00  0.00     0.011 C 
HETATM    5  C11 UNL     1      -3.316   0.557   1.840  1.00  0.00     0.011 C 
ENDBRANCH   2   3
ENDBRANCH   1   2
BRANCH   1   6
HETATM    6  C2  UNL     1      -1.189  -1.613  -1.411  1.00  0.00     0.438 C 
BRANCH   6   7
HETATM    7  O1  UNL     1      -0.612  -1.457  -2.695  1.00  0.00    -0.373 OA
HETATM    8  H5  UNL     1      -1.190  -1.925  -3.317  1.00  0.00     0.211 HD
ENDBRANCH   6   7
ENDBRANCH   1   6
BRANCH   1   9
HETATM    9  C3  UNL     1       0.828  -1.403  -0.014  1.00  0.00     0.222 C 
HETATM   10  C4  UNL     1       1.659  -2.074  -1.127  1.00  0.00     0.043 C 
BRANCH   9  11
HETATM   11  C5  UNL     1       1.731  -0.401   0.767  1.00  0.00     0.039 C 
BRANCH  11  12
HETATM   12  C6  UNL     1       1.825   1.052   0.250  1.00  0.00    -0.021 C 
HETATM   13  C7  UNL     1       2.731   1.864   1.184  1.00  0.00     0.009 C 
HETATM   14  C8  UNL     1       2.336   1.171  -1.183  1.00  0.00     0.009 C 
ENDBRANCH  11  12
ENDBRANCH   9  11
ENDBRANCH   1   9
TORSDOF 7
