REMARK  11 active torsions:
REMARK  status: ('A' for Active; 'I' for Inactive)
REMARK    1  A    between atoms: S1_1  and  C1_2 
REMARK    2  A    between atoms: C1_2  and  C2_3 
REMARK    3  A    between atoms: C1_2  and  C9_11 
REMARK    4  A    between atoms: C2_3  and  C3_4 
REMARK    5  A    between atoms: C3_4  and  C4_5 
REMARK    6  A    between atoms: C4_5  and  S2_6 
REMARK    7  A    between atoms: C9_11  and  C10_12 
REMARK    8  A    between atoms: C10_12  and  C11_14 
REMARK    9  A    between atoms: C11_14  and  C12_16 
REMARK   10  A    between atoms: C12_16  and  C13_18 
REMARK   11  A    between atoms: C13_18  and  C14_20 
ROOT
HETATM    1  C1  UNL     1      -0.354  -1.553   2.030  1.00  0.00     0.050 C 
ENDROOT
BRANCH   1   2
HETATM    2  S1  UNL     1      -0.233  -3.062   3.087  1.00  0.00    -0.169 SA
HETATM    3  C15 UNL     1      -0.020  -4.386   1.870  1.00  0.00     0.090 C 
ENDBRANCH   1   2
BRANCH   1   4
HETATM    4  C2  UNL     1      -1.138  -1.780   0.721  1.00  0.00     0.020 C 
BRANCH   4   5
HETATM    5  C3  UNL     1      -1.411  -0.514  -0.140  1.00  0.00    -0.006 C 
HETATM    6  C8  UNL     1      -2.097  -0.965  -1.437  1.00  0.00     0.011 C 
BRANCH   5   7
HETATM    7  C4  UNL     1      -2.182   0.593   0.621  1.00  0.00     0.026 C 
HETATM    8  C7  UNL     1      -3.570   0.194   1.119  1.00  0.00     0.020 C 
BRANCH   7   9
HETATM    9  S2  UNL     1      -2.256   2.178  -0.223  1.00  0.00    -0.267 SA
HETATM   10  C5  UNL     1      -0.663   2.545  -0.902  1.00  0.00     0.066 C 
HETATM   11  C6  UNL     1      -3.401   2.135  -1.577  1.00  0.00     0.066 C 
HETATM   12  H6  UNL     1      -2.614   3.146   0.652  1.00  0.00     0.081 HD
ENDBRANCH   7   9
ENDBRANCH   5   7
ENDBRANCH   4   5
ENDBRANCH   1   4
BRANCH   1  13
HETATM   13  C9  UNL     1       1.002  -0.831   1.878  1.00  0.00     0.055 C 
BRANCH  13  14
HETATM   14  C10 UNL     1       2.004  -1.443   0.896  1.00  0.00     0.208 C 
HETATM   15  F1  UNL     1       2.467  -2.615   1.419  1.00  0.00    -0.246 F 
BRANCH  14  16
HETATM   16  C11 UNL     1       3.224  -0.551   0.633  1.00  0.00     0.240 C 
HETATM   17  F2  UNL     1       3.758  -0.161   1.824  1.00  0.00    -0.243 F 
BRANCH  16  18
HETATM   18  C12 UNL     1       2.888   0.682  -0.197  1.00  0.00     0.246 C 
HETATM   19  F3  UNL     1       2.229   0.280  -1.323  1.00  0.00    -0.243 F 
BRANCH  18  20
HETATM   20  C13 UNL     1       4.134   1.445  -0.617  1.00  0.00     0.271 C 
HETATM   21  F4  UNL     1       4.761   1.926   0.493  1.00  0.00    -0.240 F 
BRANCH  20  22
HETATM   22  C14 UNL     1       3.750   2.597  -1.528  1.00  0.00     0.389 C 
HETATM   23  F5  UNL     1       2.928   3.462  -0.882  1.00  0.00    -0.211 F 
HETATM   24  F6  UNL     1       4.853   3.296  -1.894  1.00  0.00    -0.211 F 
ENDBRANCH  20  22
ENDBRANCH  18  20
ENDBRANCH  16  18
ENDBRANCH  14  16
ENDBRANCH  13  14
ENDBRANCH   1  13
TORSDOF 11
