REMARK  13 active torsions:
REMARK  status: ('A' for Active; 'I' for Inactive)
REMARK    1  A    between atoms: C1_1  and  O1_2 
REMARK    2  A    between atoms: C1_1  and  C12_15 
REMARK    3  A    between atoms: O1_2  and  C2_3 
REMARK    4  A    between atoms: C2_3  and  C3_4 
REMARK    5  A    between atoms: C2_3  and  C8_10 
REMARK    6  A    between atoms: C3_4  and  S1_5 
REMARK    7  A    between atoms: C3_4  and  C4_6 
REMARK    8  A    between atoms: C4_6  and  C5_7 
REMARK    9  A    between atoms: C8_10  and  O2_11 
REMARK   10  A    between atoms: O2_11  and  C9_12 
REMARK   11  A    between atoms: C12_15  and  C13_16 
REMARK   12  A    between atoms: C13_16  and  C15_18 
REMARK   13  A    between atoms: C15_18  and  O3_19 
ROOT
HETATM    1  C2  UNL     1      -0.593  -0.548  -0.264  1.00  0.00     0.158 C 
ENDROOT
BRANCH   1   2
HETATM    2  O1  UNL     1       0.274  -0.580   0.882  1.00  0.00    -0.383 OA
BRANCH   2   3
HETATM    3  C1  UNL     1       1.168  -1.687   0.938  1.00  0.00     0.168 C 
BRANCH   3   4
HETATM    4  C12 UNL     1       2.397  -1.494   0.051  1.00  0.00     0.032 C 
BRANCH   4   5
HETATM    5  C13 UNL     1       3.180  -0.194   0.333  1.00  0.00     0.007 C 
HETATM    6  C14 UNL     1       3.813  -0.210   1.727  1.00  0.00     0.012 C 
BRANCH   5   7
HETATM    7  C15 UNL     1       4.245   0.037  -0.749  1.00  0.00     0.168 C 
BRANCH   7   8
HETATM    8  O3  UNL     1       5.166  -1.043  -0.823  1.00  0.00    -0.400 OA
HETATM    9  H32 UNL     1       5.716  -1.013  -0.022  1.00  0.00     0.209 HD
ENDBRANCH   7   8
ENDBRANCH   5   7
ENDBRANCH   4   5
ENDBRANCH   3   4
ENDBRANCH   2   3
ENDBRANCH   1   2
BRANCH   1  10
HETATM   10  C3  UNL     1      -2.079  -0.439   0.204  1.00  0.00     0.075 C 
BRANCH  10  11
HETATM   11  S1  UNL     1      -2.421   1.074   1.193  1.00  0.00    -0.175 SA
HETATM   12  H5  UNL     1      -1.182   1.593   1.083  1.00  0.00     0.102 HD
ENDBRANCH  10  11
BRANCH  10  13
HETATM   13  C4  UNL     1      -2.474  -1.695   1.021  1.00  0.00     0.021 C 
BRANCH  13  14
HETATM   14  C5  UNL     1      -3.957  -2.135   1.003  1.00  0.00    -0.022 C 
HETATM   15  C6  UNL     1      -4.446  -2.479  -0.405  1.00  0.00     0.009 C 
HETATM   16  C7  UNL     1      -4.916  -1.155   1.673  1.00  0.00     0.009 C 
ENDBRANCH  13  14
ENDBRANCH  10  13
ENDBRANCH   1  10
BRANCH   1  17
HETATM   17  C8  UNL     1      -0.165   0.565  -1.250  1.00  0.00     0.201 C 
BRANCH  17  18
HETATM   18  O2  UNL     1      -0.063   1.837  -0.611  1.00  0.00    -0.384 OA
BRANCH  18  19
HETATM   19  C9  UNL     1       0.204   2.919  -1.505  1.00  0.00     0.113 C 
HETATM   20  C10 UNL     1      -0.156   4.203  -0.766  1.00  0.00     0.039 C 
HETATM   21  C11 UNL     1       1.673   2.941  -1.915  1.00  0.00     0.039 C 
ENDBRANCH  18  19
ENDBRANCH  17  18
ENDBRANCH   1  17
TORSDOF 13
