REMARK  6 active torsions:
REMARK  status: ('A' for Active; 'I' for Inactive)
REMARK    1  A    between atoms: S1_1  and  C1_2 
REMARK    2  A    between atoms: S1_1  and  C8_9 
REMARK    3  A    between atoms: C1_2  and  C2_3 
REMARK    4  A    between atoms: C2_3  and  C3_4 
REMARK    5  A    between atoms: C8_9  and  C9_10 
REMARK    6  A    between atoms: C9_10  and  C10_12 
ROOT
HETATM    1  S1  UNL     1       0.639   1.223  -0.800  1.00  0.00    -0.161 SA
ENDROOT
BRANCH   1   2
HETATM    2  C1  UNL     1      -0.300  -0.350  -0.560  1.00  0.00     0.047 C 
HETATM    3  C7  UNL     1       0.337  -1.389  -1.488  1.00  0.00     0.021 C 
BRANCH   2   4
HETATM    4  C2  UNL     1      -1.824  -0.132  -0.835  1.00  0.00    -0.002 C 
HETATM    5  C6  UNL     1      -2.577  -1.476  -0.847  1.00  0.00     0.011 C 
BRANCH   4   6
HETATM    6  C3  UNL     1      -2.491   0.892   0.144  1.00  0.00    -0.018 C 
HETATM    7  C4  UNL     1      -3.889   1.311  -0.331  1.00  0.00     0.010 C 
HETATM    8  C5  UNL     1      -2.570   0.403   1.593  1.00  0.00     0.010 C 
ENDBRANCH   4   6
ENDBRANCH   2   4
ENDBRANCH   1   2
BRANCH   1   9
HETATM    9  C8  UNL     1       1.519   1.328   0.797  1.00  0.00     0.114 C 
BRANCH   9  10
HETATM   10  C9  UNL     1       2.635   0.318   1.076  1.00  0.00     0.212 C 
HETATM   11  F1  UNL     1       2.117  -0.942   1.119  1.00  0.00    -0.246 F 
BRANCH  10  12
HETATM   12  C10 UNL     1       3.822   0.367   0.113  1.00  0.00     0.200 C 
HETATM   13  F2  UNL     1       3.440   0.032  -1.148  1.00  0.00    -0.247 F 
HETATM   14  C11 UNL     1       4.919  -0.601   0.525  1.00  0.00     0.048 C 
ENDBRANCH  10  12
ENDBRANCH   9  10
ENDBRANCH   1   9
TORSDOF 6
