REMARK  12 active torsions:
REMARK  status: ('A' for Active; 'I' for Inactive)
REMARK    1  A    between atoms: C1_1  and  N1_2 
REMARK    2  A    between atoms: N1_2  and  C2_3 
REMARK    3  A    between atoms: N1_2  and  C16_22 
REMARK    4  A    between atoms: C2_3  and  C3_4 
REMARK    5  A    between atoms: C2_3  and  C11_12 
REMARK    6  A    between atoms: C3_4  and  C4_5 
REMARK    7  A    between atoms: C4_5  and  C5_6 
REMARK    8  A    between atoms: C5_6  and  C6_7 
REMARK    9  A    between atoms: C11_12  and  C12_13 
REMARK   10  A    between atoms: C12_13  and  C13_15 
REMARK   11  A    between atoms: C13_15  and  C14_17 
REMARK   12  A    between atoms: C14_17  and  C15_19 
ROOT
HETATM    1  C2  UNL     1       0.374  -1.186  -0.479  1.00  0.00     0.236 C 
ENDROOT
BRANCH   1   2
HETATM    2  N1  UNL     1       0.075  -2.406   0.322  1.00  0.00     0.156 N 
BRANCH   2   3
HETATM    3  C1  UNL     1       1.216  -2.989   1.051  1.00  0.00     0.276 C 
HETATM    4  C17 UNL     1       2.276  -3.714   0.221  1.00  0.00     0.037 C 
ENDBRANCH   2   3
BRANCH   2   5
HETATM    5  C16 UNL     1      -0.609  -3.452  -0.433  1.00  0.00     0.586 C 
HETATM    6  F6  UNL     1       0.085  -3.750  -1.559  1.00  0.00    -0.180 F 
HETATM    7  F7  UNL     1      -0.674  -4.596   0.297  1.00  0.00    -0.180 F 
ENDBRANCH   2   5
ENDBRANCH   1   2
BRANCH   1   8
HETATM    8  C3  UNL     1      -0.870  -0.519  -1.230  1.00  0.00     0.019 C 
HETATM    9  C10 UNL     1      -1.096  -1.184  -2.605  1.00  0.00     0.012 C 
BRANCH   8  10
HETATM   10  C4  UNL     1      -2.191  -0.378  -0.382  1.00  0.00    -0.013 C 
HETATM   11  C9  UNL     1      -3.458  -0.232  -1.233  1.00  0.00     0.010 C 
BRANCH  10  12
HETATM   12  C5  UNL     1      -2.150   0.674   0.759  1.00  0.00     0.008 C 
BRANCH  12  13
HETATM   13  C6  UNL     1      -2.379   2.184   0.497  1.00  0.00    -0.022 C 
HETATM   14  C7  UNL     1      -3.859   2.560   0.376  1.00  0.00     0.009 C 
HETATM   15  C8  UNL     1      -1.590   2.784  -0.661  1.00  0.00     0.009 C 
ENDBRANCH  12  13
ENDBRANCH  10  12
ENDBRANCH   8  10
ENDBRANCH   1   8
BRANCH   1  16
HETATM   16  C11 UNL     1       1.099  -0.087   0.368  1.00  0.00     0.076 C 
BRANCH  16  17
HETATM   17  C12 UNL     1       2.603  -0.011   0.101  1.00  0.00     0.209 C 
HETATM   18  F1  UNL     1       2.787   0.423  -1.181  1.00  0.00    -0.246 F 
BRANCH  17  19
HETATM   19  C13 UNL     1       3.382   0.913   1.034  1.00  0.00     0.243 C 
HETATM   20  F2  UNL     1       3.298   0.431   2.307  1.00  0.00    -0.243 F 
BRANCH  19  21
HETATM   21  C14 UNL     1       2.928   2.364   1.014  1.00  0.00     0.271 C 
HETATM   22  F3  UNL     1       1.644   2.453   1.469  1.00  0.00    -0.240 F 
BRANCH  21  23
HETATM   23  C15 UNL     1       3.817   3.199   1.913  1.00  0.00     0.389 C 
HETATM   24  F4  UNL     1       5.113   3.086   1.521  1.00  0.00    -0.211 F 
HETATM   25  F5  UNL     1       3.498   4.513   1.778  1.00  0.00    -0.211 F 
ENDBRANCH  21  23
ENDBRANCH  19  21
ENDBRANCH  17  19
ENDBRANCH  16  17
ENDBRANCH   1  16
TORSDOF 12
