REMARK  7 active torsions:
REMARK  status: ('A' for Active; 'I' for Inactive)
REMARK    1  A    between atoms: C1_1  and  O1_2 
REMARK    2  A    between atoms: C1_1  and  C10_11 
REMARK    3  A    between atoms: O1_2  and  C2_3 
REMARK    4  A    between atoms: C2_3  and  C3_4 
REMARK    5  A    between atoms: C3_4  and  C4_5 
REMARK    6  A    between atoms: C4_5  and  C5_6 
REMARK    7  A    between atoms: C10_11  and  C11_13 
ROOT
HETATM    1  C2  UNL     1      -0.005  -1.802  -0.205  1.00  0.00     0.121 C 
HETATM    2  C9  UNL     1       0.283  -3.143   0.472  1.00  0.00     0.040 C 
ENDROOT
BRANCH   1   3
HETATM    3  O1  UNL     1       1.099  -0.925   0.059  1.00  0.00    -0.383 OA
BRANCH   3   4
HETATM    4  C1  UNL     1       2.141  -0.999  -0.910  1.00  0.00     0.208 C 
BRANCH   4   5
HETATM    5  C10 UNL     1       3.315  -0.085  -0.557  1.00  0.00     0.227 C 
HETATM    6  F1  UNL     1       3.995  -0.620   0.500  1.00  0.00    -0.244 F 
BRANCH   5   7
HETATM    7  C11 UNL     1       2.926   1.360  -0.243  1.00  0.00     0.202 C 
HETATM    8  F2  UNL     1       2.146   1.427   0.870  1.00  0.00    -0.247 F 
HETATM    9  C12 UNL     1       4.149   2.226   0.010  1.00  0.00     0.048 C 
ENDBRANCH   5   7
ENDBRANCH   4   5
ENDBRANCH   3   4
ENDBRANCH   1   3
BRANCH   1  10
HETATM   10  C3  UNL     1      -1.290  -1.114   0.336  1.00  0.00     0.010 C 
HETATM   11  C8  UNL     1      -2.527  -2.001   0.159  1.00  0.00     0.012 C 
BRANCH  10  12
HETATM   12  C4  UNL     1      -1.479   0.262  -0.359  1.00  0.00     0.010 C 
BRANCH  12  13
HETATM   13  C5  UNL     1      -2.689   1.103   0.097  1.00  0.00    -0.022 C 
HETATM   14  C6  UNL     1      -2.726   2.418  -0.689  1.00  0.00     0.009 C 
HETATM   15  C7  UNL     1      -2.662   1.401   1.597  1.00  0.00     0.009 C 
ENDBRANCH  12  13
ENDBRANCH  10  12
ENDBRANCH   1  10
TORSDOF 7
