REMARK  5 active torsions:
REMARK  status: ('A' for Active; 'I' for Inactive)
REMARK    1  A    between atoms: C1_1  and  N1_2 
REMARK    2  A    between atoms: C1_1  and  C6_8 
REMARK    3  A    between atoms: N1_2  and  C2_3 
REMARK    4  A    between atoms: C2_3  and  N2_4 
REMARK    5  A    between atoms: C6_8  and  O1_9 
ROOT
HETATM    1  N1  UNL     1       0.415  -0.745   0.197  1.00  0.00     0.114 N 
HETATM    2  C5  UNL     1       0.796  -2.156   0.090  1.00  0.00     0.312 C 
ENDROOT
BRANCH   1   3
HETATM    3  C1  UNL     1       1.432   0.127  -0.423  1.00  0.00     0.300 C 
BRANCH   3   4
HETATM    4  C6  UNL     1       2.756   0.181   0.354  1.00  0.00     0.194 C 
BRANCH   4   5
HETATM    5  O1  UNL     1       3.626   1.161  -0.212  1.00  0.00    -0.399 OA
HETATM    6  H16 UNL     1       3.186   2.023  -0.103  1.00  0.00     0.209 HD
ENDBRANCH   4   5
ENDBRANCH   3   4
ENDBRANCH   1   3
BRANCH   1   7
HETATM    7  C2  UNL     1      -0.897  -0.545  -0.431  1.00  0.00     0.541 C 
BRANCH   7   8
HETATM    8  N2  UNL     1      -1.432   0.779  -0.097  1.00  0.00     0.108 N 
HETATM    9  C3  UNL     1      -2.626   1.053  -0.897  1.00  0.00     0.311 C 
HETATM   10  C4  UNL     1      -1.757   0.879   1.329  1.00  0.00     0.311 C 
ENDBRANCH   7   8
ENDBRANCH   1   7
TORSDOF 5
