REMARK  9 active torsions:
REMARK  status: ('A' for Active; 'I' for Inactive)
REMARK    1  A    between atoms: C1_1  and  N1_2 
REMARK    2  A    between atoms: C1_1  and  C9_10 
REMARK    3  A    between atoms: N1_2  and  C2_3 
REMARK    4  A    between atoms: C2_3  and  C3_4 
REMARK    5  A    between atoms: C3_4  and  C4_5 
REMARK    6  A    between atoms: C9_10  and  C10_11 
REMARK    7  A    between atoms: C9_10  and  C14_15 
REMARK    8  A    between atoms: C10_11  and  C11_12 
REMARK    9  A    between atoms: C14_15  and  C15_16 
ROOT
HETATM    1  C1  UNL     1       0.002  -1.241   0.915  1.00  0.00     0.277 C 
ENDROOT
BRANCH   1   2
HETATM    2  N1  UNL     1       1.078  -0.849  -0.018  1.00  0.00     0.088 N 
HETATM    3  C8  UNL     1       0.845  -1.321  -1.382  1.00  0.00     0.310 C 
BRANCH   2   4
HETATM    4  C2  UNL     1       2.413  -1.219   0.511  1.00  0.00     0.218 C 
HETATM    5  C7  UNL     1       2.711  -2.728   0.447  1.00  0.00     0.043 C 
BRANCH   4   6
HETATM    6  C3  UNL     1       3.586  -0.440  -0.144  1.00  0.00     0.039 C 
BRANCH   6   7
HETATM    7  C4  UNL     1       3.590   1.088   0.090  1.00  0.00    -0.021 C 
HETATM    8  C5  UNL     1       2.604   1.840  -0.804  1.00  0.00     0.009 C 
HETATM    9  C6  UNL     1       5.000   1.638  -0.160  1.00  0.00     0.009 C 
ENDBRANCH   6   7
ENDBRANCH   4   6
ENDBRANCH   2   4
ENDBRANCH   1   2
BRANCH   1  10
HETATM   10  C9  UNL     1      -1.394  -0.568   0.735  1.00  0.00     0.017 C 
BRANCH  10  11
HETATM   11  C10 UNL     1      -1.239   0.969   0.602  1.00  0.00     0.010 C 
BRANCH  11  12
HETATM   12  C11 UNL     1      -2.529   1.791   0.818  1.00  0.00    -0.022 C 
HETATM   13  C12 UNL     1      -3.254   2.092  -0.496  1.00  0.00     0.009 C 
HETATM   14  C13 UNL     1      -2.190   3.122   1.502  1.00  0.00     0.009 C 
ENDBRANCH  11  12
ENDBRANCH  10  11
BRANCH  10  15
HETATM   15  C14 UNL     1      -2.216  -1.223  -0.396  1.00  0.00     0.043 C 
BRANCH  15  16
HETATM   16  C15 UNL     1      -3.657  -1.518   0.025  1.00  0.00     0.166 C 
HETATM   17  F1  UNL     1      -3.628  -2.441   1.029  1.00  0.00    -0.250 F 
HETATM   18  C16 UNL     1      -4.471  -2.100  -1.117  1.00  0.00     0.045 C 
ENDBRANCH  15  16
ENDBRANCH  10  15
ENDBRANCH   1  10
TORSDOF 9
