@<TRIPOS>MOLECULE
ZINC01879871
   65    71     0     0     0
SMALL
USER_CHARGES

@<TRIPOS>ATOM
      1 C1         -0.1086    1.5001    0.0126 C.3       1 <0>        -0.0850
      2 C2         -0.0760   -0.0065    0.0038 C.2       1 <0>         0.1326
      3 C3         -0.0519   -0.8090   -1.1268 C.2       1 <0>        -0.3019
      4 C4         -0.0257   -2.1322   -0.7182 C.2       1 <0>         0.3249
      5 N1         -0.0342   -2.1164    0.6507 N.pl3     1 <0>        -0.3017
      6 N2         -0.0599   -0.7781    1.0641 N.2       1 <0>        -0.2723
      7 C5         -0.0156   -3.2383    1.4886 C.ar      1 <0>         0.1513
      8 C6         -0.6737   -4.4009    1.1095 C.ar      1 <0>        -0.1110
      9 C7         -0.6532   -5.5058    1.9379 C.ar      1 <0>        -0.1002
     10 C8          0.0214   -5.4550    3.1440 C.ar      1 <0>        -0.1186
     11 C9          0.6773   -4.2987    3.5247 C.ar      1 <0>        -0.1035
     12 C10         0.6657   -3.1924    2.6979 C.ar      1 <0>        -0.1096
     13 N3          0.0010   -3.1346   -1.6232 N.2       1 <0>        -0.5524
     14 C11         0.0045   -2.9621   -2.9218 C.2       1 <0>         0.4300
     15 C12         0.0347   -4.1329   -3.8183 C.2       1 <0>         0.4405
     16 N4          0.0379   -3.9645   -5.1173 N.2       1 <0>        -0.4980
     17 C13         0.0138   -2.7278   -5.6754 C.ar      1 <0>         0.0899
     18 C14         0.0180   -2.5887   -7.0688 C.ar      1 <0>        -0.0638
     19 C15        -0.0068   -1.3339   -7.6341 C.ar      1 <0>        -0.1226
     20 C16        -0.0360   -0.2027   -6.8324 C.ar      1 <0>        -0.0850
     21 C17        -0.0405   -0.3205   -5.4575 C.ar      1 <0>        -0.1381
     22 C18        -0.0158   -1.5774   -4.8671 C.ar      1 <0>         0.1183
     23 N5         -0.0197   -1.7083   -3.4907 N.pl3     1 <0>        -0.5009
     24 C19        -0.0491   -0.5291   -2.6132 C.3       1 <0>         0.2702
     25 H1          0.8204    0.0874   -2.8415 H         1 <0>         0.0944
     26 C20        -1.2830    0.2707   -2.9433 C.ar      1 <0>        -0.0959
     27 C21        -2.5032   -0.3652   -3.0783 C.ar      1 <0>        -0.0782
     28 C22        -3.6353    0.3678   -3.3811 C.ar      1 <0>        -0.1042
     29 C23        -3.5479    1.7372   -3.5490 C.ar      1 <0>        -0.0821
     30 C24        -2.3275    2.3738   -3.4136 C.ar      1 <0>        -0.0844
     31 C25        -1.1957    1.6404   -3.1054 C.ar      1 <0>        -0.0828
     32 Br1        -2.2072    4.2468   -3.6439 Br        1 <0>        -0.0410
     33 N6          0.0603   -5.4089   -3.2873 N.pl3     1 <0>        -0.6086
     34 C26        -0.0346   -6.5206   -4.1323 C.ar      1 <0>         0.1290
     35 C27        -0.6486   -6.4025   -5.3710 C.ar      1 <0>        -0.0900
     36 C28        -0.7405   -7.5016   -6.2037 C.ar      1 <0>        -0.1337
     37 C29        -0.2219   -8.7201   -5.8059 C.ar      1 <0>        -0.0979
     38 C30         0.3914   -8.8455   -4.5730 C.ar      1 <0>        -0.1880
     39 C31         0.4925   -7.7476   -3.7344 C.ar      1 <0>         0.0987
     40 O1          1.0999   -7.8682   -2.5238 O.3       1 <0>        -0.3199
     41 C32         1.6168   -9.1560   -2.1827 C.3       1 <0>         0.0298
     42 H2          0.9109    1.8856    0.0157 H         1 <0>         0.0847
     43 H3         -0.6294    1.8574   -0.8758 H         1 <0>         0.0810
     44 H4         -0.6310    1.8470    0.9041 H         1 <0>         0.0808
     45 H5         -1.2013   -4.4410    0.1680 H         1 <0>         0.1325
     46 H6         -1.1648   -6.4103    1.6436 H         1 <0>         0.1324
     47 H7          0.0357   -6.3202    3.7902 H         1 <0>         0.1293
     48 H8          1.2027   -4.2619    4.4676 H         1 <0>         0.1323
     49 H9          1.1819   -2.2910    2.9937 H         1 <0>         0.1323
     50 H10         0.0410   -3.4652   -7.6994 H         1 <0>         0.1416
     51 H11        -0.0032   -1.2295   -8.7090 H         1 <0>         0.1346
     52 H12        -0.0549    0.7767   -7.2870 H         1 <0>         0.1330
     53 H13        -0.0633    0.5653   -4.8402 H         1 <0>         0.1335
     54 H14        -2.5718   -1.4351   -2.9475 H         1 <0>         0.1157
     55 H15        -4.5882   -0.1294   -3.4867 H         1 <0>         0.1339
     56 H16        -4.4323    2.3097   -3.7863 H         1 <0>         0.1364
     57 H17        -0.2432    2.1375   -2.9959 H         1 <0>         0.1381
     58 H18         0.1439   -5.5339   -2.3290 H         1 <0>         0.4343
     59 H19        -1.0549   -5.4521   -5.6842 H         1 <0>         0.1573
     60 H20        -1.2190   -7.4087   -7.1675 H         1 <0>         0.1275
     61 H21        -0.2964   -9.5764   -6.4598 H         1 <0>         0.1254
     62 H22         0.7950   -9.7988   -4.2653 H         1 <0>         0.1315
     63 H23         0.8050   -9.8834   -2.1768 H         1 <0>         0.0566
     64 H24         2.3656   -9.4531   -2.9170 H         1 <0>         0.0563
     65 H25         2.0741   -9.1138   -1.1941 H         1 <0>         0.1006
@<TRIPOS>BOND
     1    1    2 1
     2    1   42 1
     3    1   43 1
     4    1   44 1
     5    2    6 2
     6    2    3 1
     7    3   24 1
     8    3    4 2
     9    4    5 1
    10    4   13 1
    11    5    6 1
    12    5    7 1
    13    7   12 ar
    14    7    8 ar
    15    8    9 ar
    16    8   45 1
    17    9   10 ar
    18    9   46 1
    19   10   11 ar
    20   10   47 1
    21   11   12 ar
    22   11   48 1
    23   12   49 1
    24   13   14 2
    25   14   23 1
    26   14   15 1
    27   15   16 2
    28   15   33 1
    29   16   17 1
    30   17   22 ar
    31   17   18 ar
    32   18   19 ar
    33   18   50 1
    34   19   20 ar
    35   19   51 1
    36   20   21 ar
    37   20   52 1
    38   21   22 ar
    39   21   53 1
    40   22   23 1
    41   23   24 1
    42   24   25 1
    43   24   26 1
    44   26   31 ar
    45   26   27 ar
    46   27   28 ar
    47   27   54 1
    48   28   29 ar
    49   28   55 1
    50   29   30 ar
    51   29   56 1
    52   30   31 ar
    53   30   32 1
    54   31   57 1
    55   33   34 1
    56   33   58 1
    57   34   39 ar
    58   34   35 ar
    59   35   36 ar
    60   35   59 1
    61   36   37 ar
    62   36   60 1
    63   37   38 ar
    64   37   61 1
    65   38   39 ar
    66   38   62 1
    67   39   40 1
    68   40   41 1
    69   41   63 1
    70   41   64 1
    71   41   65 1
