REMARK  13 active torsions:
REMARK  status: ('A' for Active; 'I' for Inactive)
REMARK    1  A    between atoms: C1_1  and  N1_2 
REMARK    2  A    between atoms: C1_1  and  C6_8 
REMARK    3  A    between atoms: N1_2  and  C2_3 
REMARK    4  A    between atoms: N1_2  and  C3_5 
REMARK    5  A    between atoms: C2_3  and  O1_4 
REMARK    6  A    between atoms: C6_8  and  C7_9 
REMARK    7  A    between atoms: C7_9  and  C8_10 
REMARK    8  A    between atoms: C8_10  and  C10_12 
REMARK    9  A    between atoms: C10_12  and  C11_13 
REMARK   10  A    between atoms: C11_13  and  C13_15 
REMARK   11  A    between atoms: C13_15  and  C14_16 
REMARK   12  A    between atoms: C14_16  and  C16_18 
REMARK   13  A    between atoms: C16_18  and  C17_19 
ROOT
HETATM    1  C8  UNL     1      -0.215   0.557  -0.804  1.00  0.00    -0.018 C 
HETATM    2  C9  UNL     1      -0.955   1.203  -1.977  1.00  0.00     0.010 C 
ENDROOT
BRANCH   1   3
HETATM    3  C7  UNL     1      -1.089  -0.484  -0.058  1.00  0.00     0.010 C 
BRANCH   3   4
HETATM    4  C6  UNL     1      -2.390  -0.024   0.647  1.00  0.00     0.010 C 
HETATM    5  C20 UNL     1      -2.219   1.297   1.401  1.00  0.00     0.011 C 
BRANCH   4   6
HETATM    6  C1  UNL     1      -3.609  -0.005  -0.310  1.00  0.00     0.279 C 
BRANCH   6   7
HETATM    7  N1  UNL     1      -4.898   0.297   0.357  1.00  0.00     0.115 N 
BRANCH   7   8
HETATM    8  C2  UNL     1      -5.838   0.819  -0.630  1.00  0.00     0.438 C 
BRANCH   8   9
HETATM    9  O1  UNL     1      -6.956   1.390   0.011  1.00  0.00    -0.373 OA
HETATM   10  H5  UNL     1      -6.563   1.845   0.777  1.00  0.00     0.211 HD
ENDBRANCH   8   9
ENDBRANCH   7   8
BRANCH   7  11
HETATM   11  C3  UNL     1      -5.406  -0.864   1.134  1.00  0.00     0.217 C 
HETATM   12  C4  UNL     1      -6.275  -0.403   2.313  1.00  0.00     0.042 C 
HETATM   13  C5  UNL     1      -6.143  -1.945   0.332  1.00  0.00     0.042 C 
ENDBRANCH   7  11
ENDBRANCH   6   7
ENDBRANCH   4   6
ENDBRANCH   3   4
ENDBRANCH   1   3
BRANCH   1  14
HETATM   14  C10 UNL     1       1.082  -0.136  -1.307  1.00  0.00     0.008 C 
BRANCH  14  15
HETATM   15  C11 UNL     1       2.376   0.691  -1.111  1.00  0.00    -0.018 C 
HETATM   16  C12 UNL     1       2.340   2.023  -1.869  1.00  0.00     0.010 C 
BRANCH  15  17
HETATM   17  C13 UNL     1       3.624  -0.106  -1.568  1.00  0.00     0.008 C 
BRANCH  17  18
HETATM   18  C14 UNL     1       3.996  -1.321  -0.693  1.00  0.00    -0.018 C 
HETATM   19  C15 UNL     1       5.113  -2.133  -1.362  1.00  0.00     0.010 C 
BRANCH  18  20
HETATM   20  C16 UNL     1       4.306  -0.987   0.784  1.00  0.00     0.008 C 
BRANCH  20  21
HETATM   21  C17 UNL     1       5.216   0.219   1.103  1.00  0.00    -0.023 C 
HETATM   22  C18 UNL     1       6.648   0.060   0.596  1.00  0.00     0.009 C 
HETATM   23  C19 UNL     1       5.241   0.443   2.621  1.00  0.00     0.009 C 
ENDBRANCH  20  21
ENDBRANCH  18  20
ENDBRANCH  17  18
ENDBRANCH  15  17
ENDBRANCH  14  15
ENDBRANCH   1  14
TORSDOF 13
