REMARK  5 active torsions:
REMARK  status: ('A' for Active; 'I' for Inactive)
REMARK    1  A    between atoms: C1_1  and  N1_2 
REMARK    2  A    between atoms: N1_2  and  C2_3 
REMARK    3  A    between atoms: N1_2  and  C5_7 
REMARK    4  A    between atoms: C2_3  and  N2_4 
REMARK    5  A    between atoms: C5_7  and  C6_8 
ROOT
HETATM    1  N1  UNL     1      -0.139   0.006  -0.187  1.00  0.00     0.116 N 
ENDROOT
BRANCH   1   2
HETATM    2  C1  UNL     1      -0.531   1.073  -1.125  1.00  0.00     0.270 C 
HETATM    3  C9  UNL     1      -0.692   2.477  -0.545  1.00  0.00     0.037 C 
ENDBRANCH   1   2
BRANCH   1   4
HETATM    4  C2  UNL     1      -1.177  -0.297   0.804  1.00  0.00     0.541 C 
BRANCH   4   5
HETATM    5  N2  UNL     1      -2.402  -0.781   0.160  1.00  0.00     0.108 N 
HETATM    6  C3  UNL     1      -2.191  -2.087  -0.471  1.00  0.00     0.311 C 
HETATM    7  C4  UNL     1      -3.483  -0.872   1.140  1.00  0.00     0.311 C 
ENDBRANCH   4   5
ENDBRANCH   1   4
BRANCH   1   8
HETATM    8  C5  UNL     1       1.150   0.242   0.486  1.00  0.00     0.278 C 
BRANCH   8   9
HETATM    9  C6  UNL     1       2.372   0.362  -0.453  1.00  0.00     0.006 C 
HETATM   10  C7  UNL     1       2.550  -0.884  -1.323  1.00  0.00     0.011 C 
HETATM   11  C8  UNL     1       3.638   0.602   0.374  1.00  0.00     0.011 C 
ENDBRANCH   8   9
ENDBRANCH   1   8
TORSDOF 5
