REMARK  6 active torsions:
REMARK  status: ('A' for Active; 'I' for Inactive)
REMARK    1  A    between atoms: S1_1  and  C1_2 
REMARK    2  A    between atoms: C1_2  and  C2_3 
REMARK    3  A    between atoms: C1_2  and  C6_8 
REMARK    4  A    between atoms: C2_3  and  C3_4 
REMARK    5  A    between atoms: C3_4  and  S2_5 
REMARK    6  A    between atoms: C6_8  and  C8_10 
ROOT
HETATM    1  C1  UNL     1       0.132  -0.025  -0.831  1.00  0.00     0.055 C 
ENDROOT
BRANCH   1   2
HETATM    2  S1  UNL     1       1.309   1.170  -1.640  1.00  0.00    -0.168 SA
HETATM    3  C10 UNL     1       1.406   2.512  -0.425  1.00  0.00     0.090 C 
ENDBRANCH   1   2
BRANCH   1   4
HETATM    4  C2  UNL     1      -1.128   0.654  -0.174  1.00  0.00     0.009 C 
HETATM    5  C5  UNL     1      -1.918   1.458  -1.233  1.00  0.00     0.012 C 
BRANCH   4   6
HETATM    6  C3  UNL     1      -2.048  -0.354   0.583  1.00  0.00     0.045 C 
HETATM    7  C4  UNL     1      -2.759  -1.366  -0.313  1.00  0.00     0.021 C 
BRANCH   6   8
HETATM    8  S2  UNL     1      -3.302   0.496   1.626  1.00  0.00    -0.177 SA
HETATM    9  H4  UNL     1      -4.110   0.890   0.631  1.00  0.00     0.102 HD
ENDBRANCH   6   8
ENDBRANCH   4   6
ENDBRANCH   1   4
BRANCH   1  10
HETATM   10  C6  UNL     1       0.880  -1.101   0.030  1.00  0.00    -0.005 C 
HETATM   11  C7  UNL     1       1.909  -1.903  -0.784  1.00  0.00     0.011 C 
BRANCH  10  12
HETATM   12  C8  UNL     1       1.431  -0.615   1.390  1.00  0.00     0.001 C 
HETATM   13  C9  UNL     1       2.914  -0.270   1.445  1.00  0.00     0.005 C 
ENDBRANCH  10  12
ENDBRANCH   1  10
TORSDOF 6
