REMARK  5 active torsions:
REMARK  status: ('A' for Active; 'I' for Inactive)
REMARK    1  A    between atoms: S1_1  and  C1_2 
REMARK    2  A    between atoms: S1_1  and  C9_10 
REMARK    3  A    between atoms: C1_2  and  C2_3 
REMARK    4  A    between atoms: C2_3  and  C3_4 
REMARK    5  A    between atoms: C3_4  and  C5_6 
ROOT
HETATM    1  C1  UNL     1      -0.555  -0.439   0.278  1.00  0.00     0.047 C 
HETATM    2  C8  UNL     1      -0.515  -1.375   1.485  1.00  0.00     0.021 C 
ENDROOT
BRANCH   1   3
HETATM    3  S1  UNL     1      -1.967  -0.912  -0.817  1.00  0.00    -0.160 SA
BRANCH   3   4
HETATM    4  C9  UNL     1      -3.357  -0.088   0.049  1.00  0.00     0.039 C 
HETATM    5  C10 UNL     1      -3.420   1.387  -0.337  1.00  0.00     0.021 C 
HETATM    6  C11 UNL     1      -4.654  -0.799  -0.330  1.00  0.00     0.021 C 
ENDBRANCH   3   4
ENDBRANCH   1   3
BRANCH   1   7
HETATM    7  C2  UNL     1       0.785  -0.397  -0.526  1.00  0.00    -0.001 C 
HETATM    8  C7  UNL     1       1.193  -1.793  -1.042  1.00  0.00     0.011 C 
BRANCH   7   9
HETATM    9  C3  UNL     1       1.973   0.267   0.268  1.00  0.00    -0.014 C 
HETATM   10  C4  UNL     1       1.585   1.639   0.841  1.00  0.00     0.010 C 
BRANCH   9  11
HETATM   11  C5  UNL     1       3.241   0.389  -0.617  1.00  0.00     0.000 C 
HETATM   12  C6  UNL     1       4.451   0.996   0.083  1.00  0.00     0.005 C 
ENDBRANCH   9  11
ENDBRANCH   7   9
ENDBRANCH   1   7
TORSDOF 5
