REMARK  8 active torsions:
REMARK  status: ('A' for Active; 'I' for Inactive)
REMARK    1  A    between atoms: C1_1  and  N1_2 
REMARK    2  A    between atoms: C1_1  and  C8_10 
REMARK    3  A    between atoms: N1_2  and  C2_3 
REMARK    4  A    between atoms: N1_2  and  C3_5 
REMARK    5  A    between atoms: C2_3  and  O1_4 
REMARK    6  A    between atoms: C3_5  and  C5_7 
REMARK    7  A    between atoms: C8_10  and  C9_11 
REMARK    8  A    between atoms: C9_11  and  C10_13 
ROOT
HETATM    1  N1  UNL     1      -0.500  -0.241  -0.749  1.00  0.00     0.115 N 
ENDROOT
BRANCH   1   2
HETATM    2  C1  UNL     1       0.640   0.240   0.070  1.00  0.00     0.278 C 
BRANCH   2   3
HETATM    3  C8  UNL     1       1.893   0.630  -0.727  1.00  0.00     0.070 C 
BRANCH   3   4
HETATM    4  C9  UNL     1       2.919   1.409   0.099  1.00  0.00     0.205 C 
HETATM    5  F1  UNL     1       3.972   1.698  -0.726  1.00  0.00    -0.246 F 
BRANCH   4   6
HETATM    6  C10 UNL     1       3.468   0.710   1.342  1.00  0.00     0.200 C 
HETATM    7  F2  UNL     1       2.478   0.586   2.269  1.00  0.00    -0.247 F 
HETATM    8  C11 UNL     1       4.058  -0.665   1.079  1.00  0.00     0.048 C 
ENDBRANCH   4   6
ENDBRANCH   3   4
ENDBRANCH   2   3
ENDBRANCH   1   2
BRANCH   1   9
HETATM    9  C2  UNL     1      -0.091  -1.331  -1.633  1.00  0.00     0.438 C 
BRANCH   9  10
HETATM   10  O1  UNL     1       0.352  -2.460  -0.905  1.00  0.00    -0.373 OA
HETATM   11  H5  UNL     1       0.548  -3.146  -1.564  1.00  0.00     0.211 HD
ENDBRANCH   9  10
ENDBRANCH   1   9
BRANCH   1  12
HETATM   12  C3  UNL     1      -1.676  -0.600   0.111  1.00  0.00     0.225 C 
HETATM   13  C4  UNL     1      -2.818  -1.248  -0.704  1.00  0.00     0.043 C 
BRANCH  12  14
HETATM   14  C5  UNL     1      -2.221   0.623   0.933  1.00  0.00     0.010 C 
HETATM   15  C6  UNL     1      -3.359   0.243   1.891  1.00  0.00     0.011 C 
HETATM   16  C7  UNL     1      -2.660   1.796   0.051  1.00  0.00     0.011 C 
ENDBRANCH  12  14
ENDBRANCH   1  12
TORSDOF 8
