REMARK  10 active torsions:
REMARK  status: ('A' for Active; 'I' for Inactive)
REMARK    1  A    between atoms: C1_1  and  O1_2 
REMARK    2  A    between atoms: C1_1  and  C13_14 
REMARK    3  A    between atoms: O1_2  and  C2_3 
REMARK    4  A    between atoms: C2_3  and  C3_4 
REMARK    5  A    between atoms: C2_3  and  C9_10 
REMARK    6  A    between atoms: C3_4  and  C4_5 
REMARK    7  A    between atoms: C4_5  and  C5_6 
REMARK    8  A    between atoms: C9_10  and  C10_11 
REMARK    9  A    between atoms: C13_14  and  C14_15 
REMARK   10  A    between atoms: C14_15  and  C15_17 
ROOT
HETATM    1  C2  UNL     1      -0.110   0.493  -0.133  1.00  0.00     0.125 C 
ENDROOT
BRANCH   1   2
HETATM    2  O1  UNL     1       0.838  -0.107   0.780  1.00  0.00    -0.385 OA
BRANCH   2   3
HETATM    3  C1  UNL     1       2.196   0.264   0.543  1.00  0.00     0.171 C 
BRANCH   3   4
HETATM    4  C13 UNL     1       2.820  -0.688  -0.473  1.00  0.00     0.066 C 
BRANCH   4   5
HETATM    5  C14 UNL     1       4.290  -0.389  -0.745  1.00  0.00     0.205 C 
HETATM    6  F1  UNL     1       4.359   0.885  -1.239  1.00  0.00    -0.246 F 
BRANCH   5   7
HETATM    7  C15 UNL     1       5.230  -0.487   0.458  1.00  0.00     0.200 C 
HETATM    8  F2  UNL     1       6.513  -0.346   0.000  1.00  0.00    -0.247 F 
HETATM    9  C16 UNL     1       5.164  -1.814   1.191  1.00  0.00     0.048 C 
ENDBRANCH   5   7
ENDBRANCH   4   5
ENDBRANCH   3   4
ENDBRANCH   2   3
ENDBRANCH   1   2
BRANCH   1  10
HETATM   10  C3  UNL     1      -1.189  -0.602  -0.397  1.00  0.00     0.011 C 
HETATM   11  C8  UNL     1      -1.944  -0.364  -1.704  1.00  0.00     0.012 C 
BRANCH  10  12
HETATM   12  C4  UNL     1      -2.121  -0.817   0.821  1.00  0.00     0.010 C 
BRANCH  12  13
HETATM   13  C5  UNL     1      -3.061  -2.044   0.832  1.00  0.00    -0.022 C 
HETATM   14  C6  UNL     1      -2.374  -3.342   0.414  1.00  0.00     0.009 C 
HETATM   15  C7  UNL     1      -4.352  -1.828   0.042  1.00  0.00     0.009 C 
ENDBRANCH  12  13
ENDBRANCH  10  12
ENDBRANCH   1  10
BRANCH   1  16
HETATM   16  C9  UNL     1      -0.578   1.811   0.521  1.00  0.00     0.036 C 
BRANCH  16  17
HETATM   17  C10 UNL     1      -1.532   2.704  -0.287  1.00  0.00    -0.020 C 
HETATM   18  C11 UNL     1      -0.911   3.177  -1.602  1.00  0.00     0.009 C 
HETATM   19  C12 UNL     1      -1.932   3.922   0.554  1.00  0.00     0.009 C 
ENDBRANCH  16  17
ENDBRANCH   1  16
TORSDOF 10
