REMARK  8 active torsions:
REMARK  status: ('A' for Active; 'I' for Inactive)
REMARK    1  A    between atoms: C1_1  and  N1_2 
REMARK    2  A    between atoms: C1_1  and  C9_11 
REMARK    3  A    between atoms: N1_2  and  C2_3 
REMARK    4  A    between atoms: N1_2  and  C4_5 
REMARK    5  A    between atoms: C4_5  and  C5_6 
REMARK    6  A    between atoms: C5_6  and  N2_7 
REMARK    7  A    between atoms: C9_11  and  C10_12 
REMARK    8  A    between atoms: C10_12  and  C11_14 
ROOT
HETATM    1  N1  UNL     1      -0.089  -1.046  -0.213  1.00  0.00    -0.407 N 
ENDROOT
BRANCH   1   2
HETATM    2  C1  UNL     1       0.804  -0.742  -1.331  1.00  0.00     0.120 C 
BRANCH   2   3
HETATM    3  C9  UNL     1       2.272  -1.162  -1.157  1.00  0.00     0.059 C 
BRANCH   3   4
HETATM    4  C10 UNL     1       3.032  -0.575   0.036  1.00  0.00     0.205 C 
HETATM    5  F1  UNL     1       2.488  -1.017   1.201  1.00  0.00    -0.246 F 
BRANCH   4   6
HETATM    6  C11 UNL     1       3.142   0.952   0.051  1.00  0.00     0.200 C 
HETATM    7  F2  UNL     1       1.914   1.530   0.107  1.00  0.00    -0.247 F 
HETATM    8  C12 UNL     1       3.937   1.448   1.246  1.00  0.00     0.048 C 
ENDBRANCH   4   6
ENDBRANCH   3   4
ENDBRANCH   2   3
ENDBRANCH   1   2
BRANCH   1   9
HETATM    9  C2  UNL     1      -0.169  -2.456   0.178  1.00  0.00     0.113 C 
HETATM   10  C3  UNL     1      -0.798  -3.405  -0.834  1.00  0.00     0.026 C 
ENDBRANCH   1   9
BRANCH   1  11
HETATM   11  C4  UNL     1      -1.403  -0.356  -0.244  1.00  0.00     0.103 C 
HETATM   12  C8  UNL     1      -2.052  -0.254  -1.633  1.00  0.00     0.034 C 
BRANCH  11  13
HETATM   13  C5  UNL     1      -1.251   1.063   0.396  1.00  0.00     0.295 C 
BRANCH  13  14
HETATM   14  N2  UNL     1      -2.511   1.832   0.545  1.00  0.00     0.081 N 
HETATM   15  C6  UNL     1      -2.197   3.215   0.917  1.00  0.00     0.309 C 
HETATM   16  C7  UNL     1      -3.385   1.239   1.559  1.00  0.00     0.309 C 
ENDBRANCH  13  14
ENDBRANCH  11  13
ENDBRANCH   1  11
TORSDOF 8
