REMARK  9 active torsions:
REMARK  status: ('A' for Active; 'I' for Inactive)
REMARK    1  A    between atoms: C1_1  and  O1_2 
REMARK    2  A    between atoms: C1_1  and  C13_14 
REMARK    3  A    between atoms: O1_2  and  C2_3 
REMARK    4  A    between atoms: C2_3  and  C3_4 
REMARK    5  A    between atoms: C2_3  and  C9_10 
REMARK    6  A    between atoms: C3_4  and  C4_5 
REMARK    7  A    between atoms: C4_5  and  C5_6 
REMARK    8  A    between atoms: C9_10  and  C10_11 
REMARK    9  A    between atoms: C13_14  and  C14_16 
ROOT
HETATM    1  C2  UNL     1      -0.610   0.721  -0.160  1.00  0.00     0.125 C 
ENDROOT
BRANCH   1   2
HETATM    2  O1  UNL     1       0.735   0.503  -0.604  1.00  0.00    -0.383 OA
BRANCH   2   3
HETATM    3  C1  UNL     1       1.613  -0.053   0.378  1.00  0.00     0.208 C 
BRANCH   3   4
HETATM    4  C13 UNL     1       3.048   0.011  -0.145  1.00  0.00     0.227 C 
HETATM    5  F1  UNL     1       3.464   1.314  -0.116  1.00  0.00    -0.244 F 
BRANCH   4   6
HETATM    6  C14 UNL     1       3.991  -0.806   0.729  1.00  0.00     0.202 C 
HETATM    7  F2  UNL     1       3.579  -2.106   0.744  1.00  0.00    -0.247 F 
HETATM    8  C15 UNL     1       5.418  -0.773   0.211  1.00  0.00     0.048 C 
ENDBRANCH   4   6
ENDBRANCH   3   4
ENDBRANCH   2   3
ENDBRANCH   1   2
BRANCH   1   9
HETATM    9  C3  UNL     1      -1.502  -0.544  -0.373  1.00  0.00     0.011 C 
HETATM   10  C8  UNL     1      -1.288  -1.149  -1.768  1.00  0.00     0.012 C 
BRANCH   9  11
HETATM   11  C4  UNL     1      -1.272  -1.609   0.729  1.00  0.00     0.010 C 
BRANCH  11  12
HETATM   12  C5  UNL     1      -2.561  -2.279   1.259  1.00  0.00    -0.022 C 
HETATM   13  C6  UNL     1      -2.211  -3.218   2.418  1.00  0.00     0.009 C 
HETATM   14  C7  UNL     1      -3.331  -3.052   0.191  1.00  0.00     0.009 C 
ENDBRANCH  11  12
ENDBRANCH   9  11
ENDBRANCH   1   9
BRANCH   1  15
HETATM   15  C9  UNL     1      -1.165   1.911  -0.979  1.00  0.00     0.036 C 
BRANCH  15  16
HETATM   16  C10 UNL     1      -0.709   3.302  -0.481  1.00  0.00    -0.020 C 
HETATM   17  C11 UNL     1       0.801   3.516  -0.561  1.00  0.00     0.009 C 
HETATM   18  C12 UNL     1      -1.423   4.392  -1.286  1.00  0.00     0.009 C 
ENDBRANCH  15  16
ENDBRANCH   1  15
TORSDOF 9
