REMARK  1 active torsions:
REMARK  status: ('A' for Active; 'I' for Inactive)
REMARK    1  A    between atoms: O1_2  and  C2_3 
ROOT
HETATM    1  C2  UNL     1      -0.433  -0.118  -0.325  1.00  0.00     0.106 A 
HETATM    2  C3  UNL     1       0.341  -0.764  -1.295  1.00  0.00     0.040 A 
HETATM    3  C4  UNL     1       1.726  -0.880  -1.146  1.00  0.00     0.003 A 
HETATM    4  C5  UNL     1       2.353  -0.348  -0.021  1.00  0.00     0.003 A 
HETATM    5  C6  UNL     1       1.592   0.298   0.952  1.00  0.00     0.045 A 
HETATM    6  C7  UNL     1       0.209   0.411   0.798  1.00  0.00     0.149 A 
HETATM    7  F1  UNL     1      -0.471   1.043   1.765  1.00  0.00    -0.203 F 
ENDROOT
BRANCH   1   8
HETATM    8  O1  UNL     1      -1.772  -0.084  -0.610  1.00  0.00    -0.353 OA
HETATM    9  C1  UNL     1      -2.616   0.560   0.336  1.00  0.00     0.210 C 
ENDBRANCH   1   8
TORSDOF 1
