REMARK  2 active torsions:
REMARK  status: ('A' for Active; 'I' for Inactive)
REMARK    1  A    between atoms: O1_2  and  C2_3 
REMARK    2  A    between atoms: C2_3  and  C3_5 
ROOT
HETATM    1  C3  UNL     1      -0.212  -0.240  -0.021  1.00  0.00     0.078 A 
HETATM    2  C4  UNL     1      -0.515   1.039  -0.516  1.00  0.00     0.021 A 
HETATM    3  C5  UNL     1      -1.846   1.440  -0.665  1.00  0.00     0.001 A 
HETATM    4  C6  UNL     1      -2.881   0.570  -0.323  1.00  0.00     0.003 A 
HETATM    5  C7  UNL     1      -2.586  -0.701   0.168  1.00  0.00     0.043 A 
HETATM    6  C8  UNL     1      -1.258  -1.100   0.315  1.00  0.00     0.132 A 
HETATM    7  F1  UNL     1      -1.024  -2.325   0.806  1.00  0.00    -0.205 F 
ENDROOT
BRANCH   1   8
HETATM    8  C2  UNL     1       1.188  -0.705   0.136  1.00  0.00     0.296 C 
HETATM    9  O2  UNL     1       1.532  -1.872   0.215  1.00  0.00    -0.259 OA
BRANCH   8  10
HETATM   10  O1  UNL     1       2.023   0.367   0.186  1.00  0.00    -0.322 OA
HETATM   11  C1  UNL     1       3.399   0.020   0.354  1.00  0.00     0.213 C 
ENDBRANCH   8  10
ENDBRANCH   1   8
TORSDOF 2
