REMARK  3 active torsions:
REMARK  status: ('A' for Active; 'I' for Inactive)
REMARK    1  A    between atoms: C7_7  and  C8_8 
REMARK       I    between atoms: C8_8  and  N1_10 
REMARK    2  A    between atoms: N1_10  and  C9_11 
REMARK    3  A    between atoms: C9_11  and  C10_12 
ROOT
HETATM    1  C8  UNL     1       0.556  -0.861  -1.298  1.00  0.00     0.252 C 
HETATM    2  O1  UNL     1       0.010  -0.917  -2.392  1.00  0.00    -0.268 OA
HETATM    3  N1  UNL     1       0.042  -1.392  -0.138  1.00  0.00    -0.353 N 
HETATM    4  H8  UNL     1       0.563  -1.305   0.724  1.00  0.00     0.163 HD
ENDROOT
BRANCH   3   5
HETATM    5  C9  UNL     1      -1.289  -1.949  -0.071  1.00  0.00     0.164 C 
BRANCH   5   6
HETATM    6  C10 UNL     1      -2.265  -0.933   0.450  1.00  0.00    -0.002 A 
HETATM    7  C11 UNL     1      -2.839   0.015  -0.410  1.00  0.00     0.012 A 
HETATM    8  C12 UNL     1      -3.728   0.973   0.084  1.00  0.00     0.001 A 
HETATM    9  C13 UNL     1      -4.048   0.998   1.441  1.00  0.00     0.003 A 
HETATM   10  C14 UNL     1      -3.476   0.067   2.306  1.00  0.00     0.043 A 
HETATM   11  C15 UNL     1      -2.590  -0.885   1.807  1.00  0.00     0.124 A 
HETATM   12  F1  UNL     1      -2.037  -1.761   2.658  1.00  0.00    -0.205 F 
ENDBRANCH   5   6
ENDBRANCH   3   5
BRANCH   1  13
HETATM   13  C7  UNL     1       1.886  -0.224  -1.157  1.00  0.00     0.037 A 
HETATM   14  C2  UNL     1       2.122   0.852  -0.280  1.00  0.00    -0.046 A 
HETATM   15  C1  UNL     1       1.034   1.475   0.549  1.00  0.00     0.049 C 
HETATM   16  C3  UNL     1       3.428   1.356  -0.182  1.00  0.00     0.007 A 
HETATM   17  C4  UNL     1       4.460   0.830  -0.963  1.00  0.00     0.001 A 
HETATM   18  C5  UNL     1       4.204  -0.209  -1.856  1.00  0.00     0.001 A 
HETATM   19  C6  UNL     1       2.918  -0.735  -1.956  1.00  0.00     0.017 A 
ENDBRANCH   1  13
TORSDOF 3
