REMARK  7 active torsions:
REMARK  status: ('A' for Active; 'I' for Inactive)
REMARK    1  A    between atoms: O1_2  and  C2_3 
REMARK    2  A    between atoms: C2_3  and  C3_5 
REMARK    3  A    between atoms: C8_10  and  N1_11 
REMARK    4  A    between atoms: N1_11  and  C9_12 
REMARK    5  A    between atoms: C9_12  and  C10_13 
REMARK    6  A    between atoms: C10_13  and  N2_14 
REMARK       I    between atoms: N2_14  and  C11_15 
REMARK    7  A    between atoms: C11_15  and  C12_17 
ROOT
HETATM    1  C9  UNL     1      -0.060  -1.401  -2.704  1.00  0.00     0.112 C 
ENDROOT
BRANCH   1   2
HETATM    2  N1  UNL     1       1.025  -0.439  -2.419  1.00  0.00    -0.291 NA
HETATM    3  H8  UNL     1       0.631   0.460  -2.121  1.00  0.00     0.127 HD
BRANCH   2   4
HETATM    4  C8  UNL     1       1.941  -0.884  -1.434  1.00  0.00     0.024 A 
HETATM    5  C3  UNL     1       2.167  -0.180  -0.227  1.00  0.00     0.060 A 
HETATM    6  C4  UNL     1       3.100  -0.678   0.703  1.00  0.00     0.019 A 
HETATM    7  C5  UNL     1       3.808  -1.853   0.444  1.00  0.00     0.001 A 
HETATM    8  C6  UNL     1       3.595  -2.542  -0.745  1.00  0.00     0.002 A 
HETATM    9  C7  UNL     1       2.673  -2.060  -1.674  1.00  0.00     0.024 A 
BRANCH   5  10
HETATM   10  C2  UNL     1       1.398   1.068   0.077  1.00  0.00     0.294 C 
HETATM   11  O2  UNL     1       0.470   1.487  -0.606  1.00  0.00    -0.259 OA
BRANCH  10  12
HETATM   12  O1  UNL     1       1.869   1.668   1.200  1.00  0.00    -0.322 OA
HETATM   13  C1  UNL     1       1.190   2.874   1.553  1.00  0.00     0.213 C 
ENDBRANCH  10  12
ENDBRANCH   5  10
ENDBRANCH   2   4
ENDBRANCH   1   2
BRANCH   1  14
HETATM   14  C10 UNL     1      -1.400  -0.654  -2.860  1.00  0.00     0.137 C 
BRANCH  14  15
HETATM   15  N2  UNL     1      -1.792   0.027  -1.633  1.00  0.00    -0.356 N 
HETATM   16  C11 UNL     1      -2.310  -0.699  -0.578  1.00  0.00     0.254 C 
HETATM   17  O3  UNL     1      -2.632  -1.877  -0.659  1.00  0.00    -0.268 OA
HETATM   18  H13 UNL     1      -1.283   0.876  -1.392  1.00  0.00     0.162 HD
BRANCH  16  19
HETATM   19  C12 UNL     1      -2.441   0.043   0.696  1.00  0.00     0.070 A 
HETATM   20  C13 UNL     1      -2.927   1.358   0.709  1.00  0.00     0.020 A 
HETATM   21  C14 UNL     1      -3.059   2.040   1.922  1.00  0.00     0.001 A 
HETATM   22  C15 UNL     1      -2.706   1.414   3.119  1.00  0.00     0.003 A 
HETATM   23  C16 UNL     1      -2.222   0.105   3.105  1.00  0.00     0.043 A 
HETATM   24  C17 UNL     1      -2.094  -0.576   1.895  1.00  0.00     0.132 A 
HETATM   25  F1  UNL     1      -1.597  -1.821   1.918  1.00  0.00    -0.205 F 
ENDBRANCH  16  19
ENDBRANCH  14  15
ENDBRANCH   1  14
TORSDOF 7
