REMARK  3 active torsions:
REMARK  status: ('A' for Active; 'I' for Inactive)
REMARK    1  A    between atoms: O1_2  and  C2_3 
REMARK    2  A    between atoms: C7_8  and  C8_9 
REMARK    3  A    between atoms: C8_9  and  C10_11 
ROOT
HETATM    1  C8  UNL     1       0.358   0.734  -0.887  1.00  0.00     0.053 C 
HETATM    2  C9  UNL     1       0.320   2.140  -1.509  1.00  0.00     0.020 C 
ENDROOT
BRANCH   1   3
HETATM    3  C7  UNL     1      -0.945   0.396  -0.160  1.00  0.00    -0.017 A 
HETATM    4  C2  UNL     1      -1.703  -0.746  -0.499  1.00  0.00     0.075 A 
HETATM    5  C3  UNL     1      -2.886  -1.024   0.199  1.00  0.00     0.037 A 
HETATM    6  C4  UNL     1      -3.318  -0.189   1.231  1.00  0.00     0.003 A 
HETATM    7  C5  UNL     1      -2.573   0.931   1.578  1.00  0.00     0.001 A 
HETATM    8  C6  UNL     1      -1.395   1.219   0.891  1.00  0.00     0.011 A 
BRANCH   4   9
HETATM    9  O1  UNL     1      -1.210  -1.522  -1.516  1.00  0.00    -0.355 OA
HETATM   10  C1  UNL     1      -1.934  -2.697  -1.861  1.00  0.00     0.210 C 
ENDBRANCH   4   9
ENDBRANCH   1   3
BRANCH   1  11
HETATM   11  C10 UNL     1       1.583   0.443  -0.028  1.00  0.00    -0.011 A 
HETATM   12  C11 UNL     1       2.128  -0.855  -0.042  1.00  0.00     0.011 A 
HETATM   13  C12 UNL     1       3.241  -1.179   0.738  1.00  0.00     0.001 A 
HETATM   14  C13 UNL     1       3.826  -0.214   1.555  1.00  0.00     0.003 A 
HETATM   15  C14 UNL     1       3.292   1.072   1.593  1.00  0.00     0.043 A 
HETATM   16  C15 UNL     1       2.182   1.389   0.811  1.00  0.00     0.123 A 
HETATM   17  F1  UNL     1       1.696   2.635   0.897  1.00  0.00    -0.206 F 
ENDBRANCH   1  11
TORSDOF 3
