REMARK  1 active torsions:
REMARK  status: ('A' for Active; 'I' for Inactive)
REMARK    1  A    between atoms: C2_2  and  C3_3 
ROOT
HETATM    1  C3  UNL     1       0.177  -0.142  -0.025  1.00  0.00    -0.053 A 
HETATM    2  C4  UNL     1      -0.198  -1.457  -0.347  1.00  0.00     0.007 A 
HETATM    3  C5  UNL     1      -1.541  -1.814  -0.487  1.00  0.00     0.001 A 
HETATM    4  C6  UNL     1      -2.537  -0.862  -0.307  1.00  0.00     0.001 A 
HETATM    5  C7  UNL     1      -2.190   0.448   0.012  1.00  0.00     0.007 A 
HETATM    6  C8  UNL     1      -0.843   0.823   0.156  1.00  0.00    -0.056 A 
HETATM    7  C9  UNL     1      -0.525   2.254   0.502  1.00  0.00     0.049 C 
ENDROOT
BRANCH   1   8
HETATM    8  C2  UNL     1       1.632   0.262   0.129  1.00  0.00     0.034 C 
HETATM    9  C1  UNL     1       2.686  -0.820  -0.078  1.00  0.00     0.010 C 
ENDBRANCH   1   8
TORSDOF 1
