REMARK  4 active torsions:
REMARK  status: ('A' for Active; 'I' for Inactive)
REMARK    1  A    between atoms: C1_1  and  C3_3 
REMARK    2  A    between atoms: C8_8  and  N1_9 
REMARK    3  A    between atoms: N1_9  and  C9_10 
REMARK    4  A    between atoms: C9_10  and  C10_11 
ROOT
HETATM    1  N1  UNL     1      -0.066  -0.255  -0.065  1.00  0.00    -0.288 NA
HETATM    2  H10 UNL     1       0.112   0.573  -0.626  1.00  0.00     0.128 HD
ENDROOT
BRANCH   1   3
HETATM    3  C8  UNL     1      -1.382  -0.711  -0.228  1.00  0.00     0.014 A 
HETATM    4  C3  UNL     1      -2.433   0.220  -0.417  1.00  0.00    -0.037 A 
HETATM    5  C4  UNL     1      -3.765  -0.233  -0.506  1.00  0.00     0.009 A 
HETATM    6  C5  UNL     1      -4.072  -1.585  -0.391  1.00  0.00     0.001 A 
HETATM    7  C6  UNL     1      -3.054  -2.500  -0.168  1.00  0.00     0.002 A 
HETATM    8  C7  UNL     1      -1.729  -2.063  -0.073  1.00  0.00     0.024 A 
BRANCH   4   9
HETATM    9  C1  UNL     1      -2.197   1.715  -0.500  1.00  0.00     0.036 C 
HETATM   10  C2  UNL     1      -2.002   2.344   0.872  1.00  0.00     0.010 C 
ENDBRANCH   4   9
ENDBRANCH   1   3
BRANCH   1  11
HETATM   11  C9  UNL     1       1.055  -1.188  -0.131  1.00  0.00     0.134 C 
BRANCH  11  12
HETATM   12  C10 UNL     1       2.356  -0.440   0.027  1.00  0.00    -0.006 A 
HETATM   13  C11 UNL     1       2.549   0.473   1.076  1.00  0.00     0.011 A 
HETATM   14  C12 UNL     1       3.769   1.138   1.226  1.00  0.00     0.001 A 
HETATM   15  C13 UNL     1       4.814   0.891   0.336  1.00  0.00     0.003 A 
HETATM   16  C14 UNL     1       4.640  -0.024  -0.700  1.00  0.00     0.043 A 
HETATM   17  C15 UNL     1       3.422  -0.683  -0.844  1.00  0.00     0.123 A 
HETATM   18  F1  UNL     1       3.284  -1.567  -1.842  1.00  0.00    -0.206 F 
ENDBRANCH  11  12
ENDBRANCH   1  11
TORSDOF 4
