REMARK  1 active torsions:
REMARK  status: ('A' for Active; 'I' for Inactive)
REMARK    1  A    between atoms: C1_1  and  C3_3 
ROOT
HETATM    1  C3  UNL     1       0.142  -0.002  -0.369  1.00  0.00    -0.020 A 
HETATM    2  C4  UNL     1      -0.555  -1.216  -0.310  1.00  0.00     0.010 A 
HETATM    3  C5  UNL     1      -1.917  -1.235   0.003  1.00  0.00     0.001 A 
HETATM    4  C6  UNL     1      -2.595  -0.044   0.265  1.00  0.00     0.003 A 
HETATM    5  C7  UNL     1      -1.909   1.168   0.216  1.00  0.00     0.043 A 
HETATM    6  C8  UNL     1      -0.552   1.180  -0.097  1.00  0.00     0.122 A 
HETATM    7  F1  UNL     1       0.091   2.356  -0.132  1.00  0.00    -0.206 F 
ENDROOT
BRANCH   1   8
HETATM    8  C1  UNL     1       1.613   0.028  -0.688  1.00  0.00     0.037 C 
HETATM    9  C2  UNL     1       2.466  -0.005   0.571  1.00  0.00     0.010 C 
ENDBRANCH   1   8
TORSDOF 1
