REMARK  3 active torsions:
REMARK  status: ('A' for Active; 'I' for Inactive)
REMARK    1  A    between atoms: C1_1  and  N1_3 
REMARK    2  A    between atoms: N1_3  and  C2_4 
REMARK    3  A    between atoms: C2_4  and  C3_5 
ROOT
HETATM    1  C3  UNL     1      -0.106  -0.103   0.422  1.00  0.00    -0.002 A 
HETATM    2  C4  UNL     1      -0.601   0.914  -0.409  1.00  0.00     0.012 A 
HETATM    3  C5  UNL     1      -1.904   0.851  -0.912  1.00  0.00     0.001 A 
HETATM    4  C6  UNL     1      -2.734  -0.220  -0.584  1.00  0.00     0.003 A 
HETATM    5  C7  UNL     1      -2.263  -1.228   0.253  1.00  0.00     0.043 A 
HETATM    6  C8  UNL     1      -0.964  -1.159   0.750  1.00  0.00     0.124 A 
HETATM    7  F1  UNL     1      -0.534  -2.134   1.564  1.00  0.00    -0.205 F 
ENDROOT
BRANCH   1   8
HETATM    8  C2  UNL     1       1.273  -0.078   1.025  1.00  0.00     0.163 C 
BRANCH   8   9
HETATM    9  N1  UNL     1       2.224   0.717   0.282  1.00  0.00    -0.364 N 
HETATM   10  H2  UNL     1       2.316   1.706   0.473  1.00  0.00     0.162 HD
BRANCH   9  11
HETATM   11  C1  UNL     1       2.909   0.257  -0.802  1.00  0.00     0.348 C 
HETATM   12  O1  UNL     1       3.636   0.972  -1.477  1.00  0.00    -0.284 OA
ENDBRANCH   9  11
ENDBRANCH   8   9
ENDBRANCH   1   8
TORSDOF 3
