REMARK  7 active torsions:
REMARK  status: ('A' for Active; 'I' for Inactive)
REMARK    1  A    between atoms: O1_2  and  C2_3 
REMARK    2  A    between atoms: C2_3  and  C3_4 
REMARK    3  A    between atoms: C3_4  and  N1_5 
REMARK       I    between atoms: N1_5  and  C4_6 
REMARK    4  A    between atoms: C4_6  and  C5_8 
REMARK    5  A    between atoms: C10_13  and  N2_14 
REMARK    6  A    between atoms: N2_14  and  C11_15 
REMARK    7  A    between atoms: C11_15  and  C12_16 
ROOT
HETATM    1  C5  UNL     1      -0.741  -2.372  -0.954  1.00  0.00     0.053 A 
HETATM    2  C6  UNL     1      -0.863  -3.695  -1.411  1.00  0.00     0.019 A 
HETATM    3  C7  UNL     1       0.155  -4.623  -1.195  1.00  0.00     0.001 A 
HETATM    4  C8  UNL     1       1.303  -4.241  -0.513  1.00  0.00     0.002 A 
HETATM    5  C9  UNL     1       1.439  -2.933  -0.049  1.00  0.00     0.024 A 
HETATM    6  C10 UNL     1       0.421  -1.981  -0.253  1.00  0.00     0.024 A 
ENDROOT
BRANCH   6   7
HETATM    7  N2  UNL     1       0.676  -0.637   0.162  1.00  0.00    -0.288 NA
HETATM    8  H13 UNL     1       1.394  -0.676   0.890  1.00  0.00     0.128 HD
BRANCH   7   9
HETATM    9  C11 UNL     1       1.235   0.148  -0.969  1.00  0.00     0.134 C 
BRANCH   9  10
HETATM   10  C12 UNL     1       2.021   1.341  -0.471  1.00  0.00    -0.006 A 
HETATM   11  C13 UNL     1       1.682   2.055   0.688  1.00  0.00     0.011 A 
HETATM   12  C14 UNL     1       2.447   3.155   1.101  1.00  0.00     0.001 A 
HETATM   13  C15 UNL     1       3.544   3.572   0.347  1.00  0.00     0.003 A 
HETATM   14  C16 UNL     1       3.871   2.893  -0.825  1.00  0.00     0.043 A 
HETATM   15  C17 UNL     1       3.109   1.796  -1.226  1.00  0.00     0.123 A 
HETATM   16  F1  UNL     1       3.454   1.154  -2.350  1.00  0.00    -0.206 F 
ENDBRANCH   9  10
ENDBRANCH   7   9
ENDBRANCH   6   7
BRANCH   1  17
HETATM   17  C4  UNL     1      -1.909  -1.477  -1.229  1.00  0.00     0.253 C 
HETATM   18  N1  UNL     1      -2.055  -0.379  -0.411  1.00  0.00    -0.355 N 
HETATM   19  H8  UNL     1      -1.264  -0.171   0.198  1.00  0.00     0.162 HD
HETATM   20  O2  UNL     1      -2.686  -1.744  -2.143  1.00  0.00    -0.268 OA
BRANCH  18  21
HETATM   21  C3  UNL     1      -3.104   0.610  -0.621  1.00  0.00     0.149 C 
BRANCH  21  22
HETATM   22  C2  UNL     1      -3.932   0.876   0.645  1.00  0.00     0.186 C 
BRANCH  22  23
HETATM   23  O1  UNL     1      -3.453   1.989   1.410  1.00  0.00    -0.394 OA
HETATM   24  C1  UNL     1      -2.302   1.700   2.190  1.00  0.00     0.201 C 
ENDBRANCH  22  23
ENDBRANCH  21  22
ENDBRANCH  18  21
ENDBRANCH   1  17
TORSDOF 7
