REMARK  1 active torsions:
REMARK  status: ('A' for Active; 'I' for Inactive)
REMARK    1  A    between atoms: C2_2  and  C4_4 
ROOT
HETATM    1  C4  UNL     1       0.216  -0.102  -0.046  1.00  0.00    -0.033 A 
HETATM    2  C5  UNL     1       1.282  -0.990  -0.308  1.00  0.00     0.009 A 
HETATM    3  C6  UNL     1       2.589  -0.533  -0.492  1.00  0.00     0.001 A 
HETATM    4  C7  UNL     1       2.865   0.826  -0.419  1.00  0.00     0.002 A 
HETATM    5  C8  UNL     1       1.832   1.724  -0.162  1.00  0.00     0.024 A 
HETATM    6  C9  UNL     1       0.517   1.271   0.024  1.00  0.00     0.040 A 
HETATM    7 CL1  UNL     1      -0.666   2.490   0.336  1.00  0.00    -0.084 Cl
ENDROOT
BRANCH   1   8
HETATM    8  C2  UNL     1      -1.167  -0.716   0.137  1.00  0.00     0.012 C 
HETATM    9  C1  UNL     1      -1.734  -0.518   1.544  1.00  0.00     0.015 C 
HETATM   10  C3  UNL     1      -2.163  -0.296  -0.947  1.00  0.00     0.015 C 
ENDBRANCH   1   8
TORSDOF 1
