REMARK  4 active torsions:
REMARK  status: ('A' for Active; 'I' for Inactive)
REMARK    1  A    between atoms: C2_2  and  C4_4 
REMARK    2  A    between atoms: C9_9  and  C10_10 
REMARK       I    between atoms: C10_10  and  N1_12 
REMARK    3  A    between atoms: N1_12  and  C11_13 
REMARK    4  A    between atoms: C11_13  and  C12_14 
ROOT
HETATM    1  C10 UNL     1       0.019   1.334  -1.440  1.00  0.00     0.252 C 
HETATM    2  O1  UNL     1       0.887   1.402  -2.298  1.00  0.00    -0.268 OA
HETATM    3  N1  UNL     1       0.107   1.871  -0.177  1.00  0.00    -0.353 N 
HETATM    4  H12 UNL     1      -0.650   1.722   0.476  1.00  0.00     0.163 HD
ENDROOT
BRANCH   1   5
HETATM    5  C9  UNL     1      -1.267   0.660  -1.724  1.00  0.00     0.038 A 
HETATM    6  C4  UNL     1      -1.648  -0.544  -1.095  1.00  0.00    -0.039 A 
HETATM    7  C5  UNL     1      -2.924  -1.057  -1.394  1.00  0.00     0.008 A 
HETATM    8  C6  UNL     1      -3.769  -0.414  -2.303  1.00  0.00     0.001 A 
HETATM    9  C7  UNL     1      -3.359   0.756  -2.938  1.00  0.00     0.001 A 
HETATM   10  C8  UNL     1      -2.107   1.294  -2.650  1.00  0.00     0.017 A 
BRANCH   6  11
HETATM   11  C2  UNL     1      -0.724  -1.294  -0.145  1.00  0.00     0.011 C 
HETATM   12  C1  UNL     1      -0.496  -2.745  -0.587  1.00  0.00     0.015 C 
HETATM   13  C3  UNL     1      -1.246  -1.243   1.293  1.00  0.00     0.015 C 
ENDBRANCH   6  11
ENDBRANCH   1   5
BRANCH   3  14
HETATM   14  C11 UNL     1       1.336   2.433   0.332  1.00  0.00     0.164 C 
BRANCH  14  15
HETATM   15  C12 UNL     1       2.107   1.406   1.113  1.00  0.00    -0.002 A 
HETATM   16  C13 UNL     1       3.006   0.544   0.469  1.00  0.00     0.012 A 
HETATM   17  C14 UNL     1       3.693  -0.432   1.196  1.00  0.00     0.001 A 
HETATM   18  C15 UNL     1       3.486  -0.560   2.569  1.00  0.00     0.003 A 
HETATM   19  C16 UNL     1       2.586   0.286   3.216  1.00  0.00     0.043 A 
HETATM   20  C17 UNL     1       1.904   1.255   2.486  1.00  0.00     0.124 A 
HETATM   21  F1  UNL     1       1.028   2.046   3.123  1.00  0.00    -0.205 F 
ENDBRANCH  14  15
ENDBRANCH   3  14
TORSDOF 4
