REMARK  7 active torsions:
REMARK  status: ('A' for Active; 'I' for Inactive)
REMARK    1  A    between atoms: O1_2  and  C2_3 
REMARK    2  A    between atoms: C7_8  and  C8_9 
REMARK    3  A    between atoms: C8_9  and  C9_11 
REMARK    4  A    between atoms: C14_16  and  C15_17 
REMARK    5  A    between atoms: C15_17  and  C16_19 
REMARK    6  A    between atoms: C16_19  and  C17_20 
REMARK    7  A    between atoms: C17_20  and  C18_21 
ROOT
HETATM    1  C9  UNL     1      -1.439  -1.732  -0.758  1.00  0.00    -0.011 A 
HETATM    2  C10 UNL     1      -2.264  -2.875  -0.698  1.00  0.00     0.011 A 
HETATM    3  C11 UNL     1      -1.933  -3.975   0.092  1.00  0.00     0.001 A 
HETATM    4  C12 UNL     1      -0.763  -3.960   0.838  1.00  0.00     0.001 A 
HETATM    5  C13 UNL     1       0.073  -2.846   0.792  1.00  0.00     0.011 A 
HETATM    6  C14 UNL     1      -0.243  -1.722   0.003  1.00  0.00    -0.015 A 
ENDROOT
BRANCH   6   7
HETATM    7  C15 UNL     1       0.748  -0.572   0.001  1.00  0.00     0.204 C 
HETATM    8  F2  UNL     1       1.475  -0.532   1.159  1.00  0.00    -0.244 F 
BRANCH   7   9
HETATM    9  C16 UNL     1       1.733  -0.683  -1.170  1.00  0.00     0.047 C 
BRANCH   9  10
HETATM   10  C17 UNL     1       2.508   0.615  -1.423  1.00  0.00     0.044 C 
BRANCH  10  11
HETATM   11  C18 UNL     1       3.527   0.955  -0.369  1.00  0.00    -0.019 A 
HETATM   12  C19 UNL     1       3.290   1.975   0.562  1.00  0.00     0.010 A 
HETATM   13  C20 UNL     1       4.244   2.277   1.538  1.00  0.00     0.001 A 
HETATM   14  C21 UNL     1       5.442   1.565   1.594  1.00  0.00     0.003 A 
HETATM   15  C22 UNL     1       5.688   0.549   0.674  1.00  0.00     0.043 A 
HETATM   16  C23 UNL     1       4.734   0.252  -0.295  1.00  0.00     0.122 A 
HETATM   17  F3  UNL     1       4.990  -0.726  -1.175  1.00  0.00    -0.206 F 
ENDBRANCH  10  11
ENDBRANCH   9  10
ENDBRANCH   7   9
ENDBRANCH   6   7
BRANCH   1  18
HETATM   18  C8  UNL     1      -1.890  -0.585  -1.667  1.00  0.00     0.240 C 
HETATM   19  F1  UNL     1      -2.878  -0.969  -2.539  1.00  0.00    -0.239 F 
BRANCH  18  20
HETATM   20  C7  UNL     1      -2.274   0.713  -0.970  1.00  0.00     0.013 A 
HETATM   21  C2  UNL     1      -3.256   0.769   0.037  1.00  0.00     0.077 A 
HETATM   22  C3  UNL     1      -3.568   1.997   0.633  1.00  0.00     0.037 A 
HETATM   23  C4  UNL     1      -2.922   3.168   0.232  1.00  0.00     0.003 A 
HETATM   24  C5  UNL     1      -1.970   3.128  -0.780  1.00  0.00     0.001 A 
HETATM   25  C6  UNL     1      -1.655   1.912  -1.383  1.00  0.00     0.013 A 
BRANCH  21  26
HETATM   26  O1  UNL     1      -3.881  -0.408   0.346  1.00  0.00    -0.355 OA
HETATM   27  C1  UNL     1      -4.636  -0.455   1.549  1.00  0.00     0.210 C 
ENDBRANCH  21  26
ENDBRANCH  18  20
ENDBRANCH   1  18
TORSDOF 7
