REMARK  4 active torsions:
REMARK  status: ('A' for Active; 'I' for Inactive)
REMARK    1  A    between atoms: N1_1  and  C1_2 
REMARK    2  A    between atoms: C1_2  and  C2_3 
REMARK    3  A    between atoms: C7_8  and  C8_9 
REMARK    4  A    between atoms: C8_9  and  C9_11 
ROOT
HETATM    1  C2  UNL     1      -2.040  -0.134  -0.139  1.00  0.00    -0.016 A 
HETATM    2  C3  UNL     1      -3.004  -0.438   0.841  1.00  0.00     0.010 A 
HETATM    3  C4  UNL     1      -2.683  -1.202   1.965  1.00  0.00     0.001 A 
HETATM    4  C5  UNL     1      -1.394  -1.699   2.125  1.00  0.00     0.001 A 
HETATM    5  C6  UNL     1      -0.426  -1.437   1.157  1.00  0.00     0.016 A 
HETATM    6  C7  UNL     1      -0.742  -0.659   0.029  1.00  0.00     0.023 A 
ENDROOT
BRANCH   6   7
HETATM    7  C8  UNL     1       0.318  -0.444  -0.993  1.00  0.00     0.196 C 
HETATM    8  O1  UNL     1       0.054  -0.577  -2.182  1.00  0.00    -0.287 OA
BRANCH   7   9
HETATM    9  C9  UNL     1       1.680  -0.046  -0.574  1.00  0.00     0.053 A 
HETATM   10  C10 UNL     1       1.867   0.909   0.435  1.00  0.00     0.018 A 
HETATM   11  C11 UNL     1       3.160   1.286   0.806  1.00  0.00     0.001 A 
HETATM   12  C12 UNL     1       4.265   0.718   0.171  1.00  0.00     0.003 A 
HETATM   13  C13 UNL     1       4.079  -0.229  -0.837  1.00  0.00     0.043 A 
HETATM   14  C14 UNL     1       2.790  -0.605  -1.207  1.00  0.00     0.130 A 
HETATM   15  F1  UNL     1       2.650  -1.540  -2.157  1.00  0.00    -0.205 F 
ENDBRANCH   7   9
ENDBRANCH   6   7
BRANCH   1  16
HETATM   16  C1  UNL     1      -2.422   0.672  -1.363  1.00  0.00     0.306 C 
BRANCH  16  17
HETATM   17  N1  UNL     1      -3.488   1.646  -1.105  1.00  0.00     0.082 N 
HETATM   18  H1  UNL     1      -3.134   2.348  -0.457  1.00  0.00     0.313 HD
HETATM   19  H2  UNL     1      -3.685   2.139  -1.975  1.00  0.00     0.313 HD
ENDBRANCH  16  17
ENDBRANCH   1  16
TORSDOF 4
