REMARK  3 active torsions:
REMARK  status: ('A' for Active; 'I' for Inactive)
REMARK    1  A    between atoms: C7_7  and  N1_8 
REMARK       I    between atoms: N1_8  and  C8_9 
REMARK       I    between atoms: C8_9  and  N2_11 
REMARK    2  A    between atoms: N2_11  and  C9_12 
REMARK    3  A    between atoms: C9_12  and  C10_13 
ROOT
HETATM    1  N1  UNL     1      -1.272   2.140  -0.122  1.00  0.00    -0.308 N 
HETATM    2  C8  UNL     1      -0.059   2.039   0.493  1.00  0.00     0.321 C 
HETATM    3  O1  UNL     1       0.700   3.006   0.501  1.00  0.00    -0.247 OA
HETATM    4  N2  UNL     1       0.206   0.881   1.151  1.00  0.00    -0.339 N 
HETATM    5  H8  UNL     1      -1.542   3.109  -0.230  1.00  0.00     0.170 HD
HETATM    6  H9  UNL     1      -0.543   0.214   1.256  1.00  0.00     0.164 HD
ENDROOT
BRANCH   1   7
HETATM    7  C7  UNL     1      -2.242   1.167  -0.425  1.00  0.00     0.042 A 
HETATM    8  C2  UNL     1      -1.967  -0.122  -0.919  1.00  0.00    -0.035 A 
HETATM    9  C1  UNL     1      -0.601  -0.602  -1.332  1.00  0.00     0.050 C 
HETATM   10  C3  UNL     1      -3.040  -1.013  -1.120  1.00  0.00     0.009 A 
HETATM   11  C4  UNL     1      -4.359  -0.615  -0.904  1.00  0.00     0.001 A 
HETATM   12  C5  UNL     1      -4.629   0.685  -0.496  1.00  0.00     0.002 A 
HETATM   13  C6  UNL     1      -3.576   1.572  -0.270  1.00  0.00     0.030 A 
ENDBRANCH   1   7
BRANCH   4  14
HETATM   14  C9  UNL     1       1.432   0.651   1.877  1.00  0.00     0.166 C 
BRANCH  14  15
HETATM   15  C10 UNL     1       2.358  -0.243   1.102  1.00  0.00    -0.002 A 
HETATM   16  C11 UNL     1       3.100   0.262   0.023  1.00  0.00     0.012 A 
HETATM   17  C12 UNL     1       3.944  -0.576  -0.709  1.00  0.00     0.001 A 
HETATM   18  C13 UNL     1       4.055  -1.926  -0.375  1.00  0.00     0.003 A 
HETATM   19  C14 UNL     1       3.317  -2.438   0.691  1.00  0.00     0.043 A 
HETATM   20  C15 UNL     1       2.477  -1.598   1.416  1.00  0.00     0.124 A 
HETATM   21  F1  UNL     1       1.768  -2.115   2.430  1.00  0.00    -0.205 F 
ENDBRANCH  14  15
ENDBRANCH   4  14
TORSDOF 3
