REMARK  6 active torsions:
REMARK  status: ('A' for Active; 'I' for Inactive)
REMARK    1  A    between atoms: O1_2  and  C2_3 
REMARK    2  A    between atoms: C2_3  and  C3_5 
REMARK    3  A    between atoms: C8_10  and  C9_11 
REMARK       I    between atoms: C9_11  and  N1_13 
REMARK    4  A    between atoms: N1_13  and  C10_14 
REMARK    5  A    between atoms: C10_14  and  C11_15 
REMARK    6  A    between atoms: C16_20  and  O4_21 
ROOT
HETATM    1  C9  UNL     1      -1.082  -0.619   0.734  1.00  0.00     0.252 C 
HETATM    2  O3  UNL     1      -1.571  -0.593   1.855  1.00  0.00    -0.268 OA
HETATM    3  N1  UNL     1       0.259  -0.494   0.457  1.00  0.00    -0.353 N 
HETATM    4  H8  UNL     1       0.529  -0.257  -0.489  1.00  0.00     0.163 HD
ENDROOT
BRANCH   1   5
HETATM    5  C8  UNL     1      -1.949  -0.822  -0.446  1.00  0.00     0.048 A 
HETATM    6  C3  UNL     1      -3.115  -0.070  -0.616  1.00  0.00     0.055 A 
HETATM    7  C4  UNL     1      -3.967  -0.332  -1.698  1.00  0.00     0.018 A 
HETATM    8  C5  UNL     1      -3.650  -1.346  -2.604  1.00  0.00     0.001 A 
HETATM    9  C6  UNL     1      -2.485  -2.095  -2.437  1.00  0.00     0.001 A 
HETATM   10  C7  UNL     1      -1.635  -1.838  -1.359  1.00  0.00     0.018 A 
BRANCH   6  11
HETATM   11  C2  UNL     1      -3.410   1.068   0.270  1.00  0.00     0.293 C 
HETATM   12  O2  UNL     1      -2.643   1.997   0.455  1.00  0.00    -0.259 OA
BRANCH  11  13
HETATM   13  O1  UNL     1      -4.653   0.908   0.787  1.00  0.00    -0.322 OA
HETATM   14  C1  UNL     1      -5.018   1.932   1.712  1.00  0.00     0.213 C 
ENDBRANCH  11  13
ENDBRANCH   6  11
ENDBRANCH   1   5
BRANCH   3  15
HETATM   15  C10 UNL     1       1.182  -0.083   1.490  1.00  0.00     0.164 C 
BRANCH  15  16
HETATM   16  C11 UNL     1       2.607  -0.374   1.088  1.00  0.00    -0.007 A 
HETATM   17  C12 UNL     1       3.277  -1.461   1.675  1.00  0.00     0.011 A 
HETATM   18  C13 UNL     1       4.593  -1.758   1.323  1.00  0.00     0.001 A 
HETATM   19  C14 UNL     1       5.249  -0.977   0.377  1.00  0.00     0.003 A 
HETATM   20  C15 UNL     1       4.592   0.100  -0.223  1.00  0.00     0.037 A 
HETATM   21  C16 UNL     1       3.273   0.408   0.125  1.00  0.00     0.076 A 
BRANCH  21  22
HETATM   22  O4  UNL     1       2.540   1.426  -0.428  1.00  0.00    -0.355 OA
HETATM   23  C17 UNL     1       3.229   2.349  -1.262  1.00  0.00     0.210 C 
ENDBRANCH  21  22
ENDBRANCH  15  16
ENDBRANCH   3  15
TORSDOF 6
