REMARK  8 active torsions:
REMARK  status: ('A' for Active; 'I' for Inactive)
REMARK    1  A    between atoms: O1_2  and  C2_3 
REMARK    2  A    between atoms: C7_8  and  C8_9 
REMARK    3  A    between atoms: C8_9  and  O2_10 
REMARK    4  A    between atoms: O2_10  and  C9_11 
REMARK    5  A    between atoms: C9_11  and  C10_13 
REMARK    6  A    between atoms: C15_18  and  C16_19 
REMARK    7  A    between atoms: C16_19  and  N1_20 
REMARK       I    between atoms: N1_20  and  C17_21 
REMARK       I    between atoms: C17_21  and  N2_23 
REMARK    8  A    between atoms: N2_23  and  C18_24 
ROOT
HETATM    1  C10 UNL     1      -0.188  -1.231  -0.048  1.00  0.00     0.047 A 
HETATM    2  C11 UNL     1      -0.677  -2.134  -1.011  1.00  0.00     0.018 A 
HETATM    3  C12 UNL     1       0.097  -3.212  -1.442  1.00  0.00     0.001 A 
HETATM    4  C13 UNL     1       1.369  -3.405  -0.917  1.00  0.00     0.001 A 
HETATM    5  C14 UNL     1       1.873  -2.515   0.031  1.00  0.00     0.010 A 
HETATM    6  C15 UNL     1       1.114  -1.411   0.472  1.00  0.00    -0.024 A 
ENDROOT
BRANCH   6   7
HETATM    7  C16 UNL     1       1.732  -0.478   1.485  1.00  0.00     0.164 C 
BRANCH   7   8
HETATM    8  N1  UNL     1       2.060   0.804   0.903  1.00  0.00    -0.339 N 
HETATM    9  C17 UNL     1       3.261   1.278   0.471  1.00  0.00     0.321 C 
HETATM   10  O4  UNL     1       3.383   2.475   0.234  1.00  0.00    -0.247 OA
HETATM   11  N2  UNL     1       4.223   0.320   0.287  1.00  0.00    -0.306 N 
HETATM   12  H17 UNL     1       3.854  -0.541  -0.082  1.00  0.00     0.171 HD
HETATM   13  H16 UNL     1       1.332   1.513   0.957  1.00  0.00     0.164 HD
BRANCH  11  14
HETATM   14  C18 UNL     1       5.589   0.579   0.042  1.00  0.00     0.075 A 
HETATM   15  C19 UNL     1       6.298  -0.358  -0.721  1.00  0.00     0.033 A 
HETATM   16  C20 UNL     1       7.655  -0.165  -1.000  1.00  0.00     0.002 A 
HETATM   17  C21 UNL     1       8.320   0.956  -0.506  1.00  0.00     0.003 A 
HETATM   18  C22 UNL     1       7.631   1.877   0.280  1.00  0.00     0.044 A 
HETATM   19  C23 UNL     1       6.278   1.684   0.558  1.00  0.00     0.143 A 
HETATM   20  F1  UNL     1       5.689   2.544   1.400  1.00  0.00    -0.204 F 
ENDBRANCH  11  14
ENDBRANCH   7   8
ENDBRANCH   6   7
BRANCH   1  21
HETATM   21  C9  UNL     1      -1.063  -0.100   0.398  1.00  0.00     0.294 C 
HETATM   22  O3  UNL     1      -0.665   0.943   0.890  1.00  0.00    -0.259 OA
BRANCH  21  23
HETATM   23  O2  UNL     1      -2.364  -0.431   0.209  1.00  0.00    -0.313 OA
BRANCH  23  24
HETATM   24  C8  UNL     1      -3.292   0.588   0.613  1.00  0.00     0.220 C 
BRANCH  24  25
HETATM   25  C7  UNL     1      -4.723   0.124   0.424  1.00  0.00    -0.001 A 
HETATM   26  C2  UNL     1      -5.769   1.069   0.409  1.00  0.00     0.076 A 
HETATM   27  C3  UNL     1      -7.092   0.639   0.259  1.00  0.00     0.037 A 
HETATM   28  C4  UNL     1      -7.385  -0.721   0.138  1.00  0.00     0.003 A 
HETATM   29  C5  UNL     1      -6.360  -1.661   0.172  1.00  0.00     0.001 A 
HETATM   30  C6  UNL     1      -5.038  -1.242   0.319  1.00  0.00     0.012 A 
BRANCH  26  31
HETATM   31  O1  UNL     1      -5.388   2.378   0.555  1.00  0.00    -0.355 OA
HETATM   32  C1  UNL     1      -6.410   3.367   0.526  1.00  0.00     0.210 C 
ENDBRANCH  26  31
ENDBRANCH  24  25
ENDBRANCH  23  24
ENDBRANCH  21  23
ENDBRANCH   1  21
TORSDOF 8
