REMARK  2 active torsions:
REMARK  status: ('A' for Active; 'I' for Inactive)
REMARK    1  A    between atoms: C1_1  and  N1_3 
REMARK    2  A    between atoms: N1_3  and  C2_4 
ROOT
HETATM    1  C2  UNL     1      -0.245  -0.402   0.141  1.00  0.00     0.040 A 
HETATM    2  C3  UNL     1       0.616  -1.351   0.709  1.00  0.00     0.030 A 
HETATM    3  C4  UNL     1       1.853  -0.970   1.237  1.00  0.00     0.002 A 
HETATM    4  C5  UNL     1       2.246   0.362   1.203  1.00  0.00     0.001 A 
HETATM    5  C6  UNL     1       1.402   1.317   0.641  1.00  0.00     0.009 A 
HETATM    6  C7  UNL     1       0.154   0.951   0.106  1.00  0.00    -0.035 A 
HETATM    7  C8  UNL     1      -0.713   2.030  -0.487  1.00  0.00     0.050 C 
ENDROOT
BRANCH   1   8
HETATM    8  N1  UNL     1      -1.497  -0.756  -0.398  1.00  0.00    -0.334 N 
HETATM    9  H2  UNL     1      -2.078  -0.030  -0.796  1.00  0.00     0.168 HD
BRANCH   8  10
HETATM   10  C1  UNL     1      -2.074  -1.990  -0.468  1.00  0.00     0.353 C 
HETATM   11  O1  UNL     1      -3.179  -2.170  -0.966  1.00  0.00    -0.283 OA
ENDBRANCH   8  10
ENDBRANCH   1   8
TORSDOF 2
