@<TRIPOS>MOLECULE
XSARCDJTKJSJMF-CZJCILMISA-O
   48    48     1     1     1
SMALL
USER_CHARGES


@<TRIPOS>ATOM
      1 N1        -32.0820    1.6940  -39.7040 N.ar       0 <0>       -0.066
      2 C7        -33.1720    1.0560  -39.3210 C.ar       0 <0>       -0.037
      3 C8        -32.8920    0.1390  -38.2720 C.ar       0 <0>       -0.045
      4 C9        -31.5540    0.2510  -38.0390 C.ar       0 <0>       -0.121
      5 N2        -31.0790    1.2090  -38.9330 N.ar       0 <0>       -0.121
      6 O         -30.1110    5.3055  -39.1851 O.3        0 <0>       -0.205
      7 N         -30.2829    3.9954  -38.5895 N.4        0 <0>       -0.261
      8 C         -29.5454    3.0945  -39.4873 C.3        0 <0>       -0.345
      9 C         -29.6471    1.6453  -39.0288 C.3        0 <0>       -0.243
     10 O         -29.5499    3.9930  -37.3340 O.3        0 <0>       -0.370
     11 O         -31.4104    5.8543  -39.4769 O.3        0 <0>       -0.225
     12 H         -28.4900    3.3858  -39.5587 H          0 <0>        0.000
     13 H         -29.9738    3.1646  -40.4946 H          0 <0>        0.000
     14 H         -29.1759    1.4957  -38.0521 H          0 <0>        0.000
     15 H         -31.8620    5.3398  -38.7875 H          0 <0>        0.000
     16 O         -30.3045    4.5932  -35.0130 O.3        0 <0>       -0.160
     17 N         -28.9482    4.7637  -35.3082 N.am       0 <0>       -0.409
     18 C         -28.5460    4.2424  -36.4980 C.2        0 <0>       -0.564
     19 O         -27.3748    4.0454  -36.7952 O.2        0 <0>       -0.432
     20 O         -30.4814    4.5042  -33.5833 O.3        0 <0>       -0.004
     21 H         -30.9655    5.3436  -33.4891 H          0 <0>        0.000
     22 N         -30.1637   -1.0615  -36.2770 N.1        0 <0>       -0.247
     23 C         -30.7840   -0.4759  -37.0631 C.1        0 <0>       -0.213
     24 N         -25.9278    6.3250  -33.7996 N.3        0 <0>       -0.561
     25 C         -26.8366    5.2444  -34.1924 C.3        0 <0>       -0.585
     26 C         -28.0516    5.8270  -34.8984 C.3        0 <0>       -0.615
     27 N         -24.8042    5.7591  -33.1132 N.3        0 <0>       -0.530
     28 S         -23.9583    6.9547  -32.3447 S.3        0 <0>       -0.764
     29 H         -26.4252    6.9729  -33.1858 H          0 <0>        0.000
     30 H         -26.3303    4.5495  -34.8731 H          0 <0>        0.000
     31 H         -27.7594    6.3854  -35.7941 H          0 <0>        0.000
     32 H         -24.1898    5.2734  -33.7760 H          0 <0>        0.000
     33 H         -24.7576    7.1217  -31.2798 H          0 <0>        0.000
     34 N         -34.5766   -1.4228  -37.0543 N.1        0 <0>       -0.016
     35 C         -33.8250   -0.7260  -37.5976 C.1        0 <0>       -0.027
     36 N         -28.4429    0.0769  -40.7446 N.1        0 <0>        0.123
     37 C         -28.9764    0.7719  -39.9843 C.1        0 <0>       -0.023
     38 N         -29.2626    7.4049  -33.1961 N.1        0 <0>       -0.306
     39 C         -28.7260    6.7058  -33.9504 C.1        0 <0>       -0.464
     40 O         -33.5351    1.0884  -41.8856 O.3        0 <0>       -0.016
     41 N         -34.6938    1.3645  -41.1528 N.am       0 <0>       -0.007
     42 C         -34.5964    1.1462  -39.8140 C.2        0 <0>       -0.013
     43 O         -35.5611    1.0597  -39.0652 O.2        0 <0>       -0.006
     44 O         -33.8942    0.6646  -43.2177 O.3        0 <0>       -0.010
     45 H         -35.5770    1.1876  -41.6126 H          0 <0>        0.000
     46 H         -33.5294    1.4439  -43.6733 H          0 <0>        0.000
     47 N         -27.6311    3.8947  -32.0946 N.1        0 <0>        0.110
     48 C         -27.2791    4.4928  -33.0241 C.1        0 <0>       -0.215
@<TRIPOS>BOND
     1    2    1 ar 
     2    2    3 ar 
     3    3    4 ar 
     4    4    5 ar 
     5    1    5 ar 
     6    6    7 1  
     7    7    8 1  
     8    8    9 1  
     9    7   10 1  
    10    6   11 1  
    11    8   12 1  
    12    8   13 1  
    13    9   14 1  
    14   11   15 1  
    15    5    9 1  
    16   16   17 1  
    17   17   18 am 
    18   18   19 2  
    19   16   20 1  
    20   20   21 1  
    21   10   18 1  
    22   22   23 3  
    23    4   23 1  
    24   24   25 1  
    25   25   26 1  
    26   24   27 1  
    27   27   28 1  
    28   24   29 1  
    29   25   30 1  
    30   26   31 1  
    31   27   32 1  
    32   28   33 1  
    33   17   26 1  
    34   34   35 3  
    35    3   35 1  
    36   36   37 3  
    37    9   37 1  
    38   38   39 3  
    39   26   39 1  
    40   40   41 1  
    41   41   42 am 
    42   42   43 2  
    43   40   44 1  
    44   41   45 1  
    45   44   46 1  
    46    2   42 1  
    47   47   48 3  
    48   25   48 1  
