@<TRIPOS>MOLECULE
NYMRGPCKEAPWGO-GWPYMECJSA-O
   48    48     1     1     1
SMALL
USER_CHARGES


@<TRIPOS>ATOM
      1 N1        -32.0820    1.6940  -39.7040 N.ar       0 <0>       -0.066
      2 C7        -33.1720    1.0560  -39.3210 C.ar       0 <0>       -0.037
      3 C8        -32.8920    0.1390  -38.2720 C.ar       0 <0>       -0.045
      4 C9        -31.5540    0.2510  -38.0390 C.ar       0 <0>       -0.121
      5 N2        -31.0790    1.2090  -38.9330 N.ar       0 <0>       -0.121
      6 O         -30.1110    5.3055  -39.1851 O.3        0 <0>       -0.205
      7 N         -30.2829    3.9954  -38.5895 N.4        0 <0>       -0.261
      8 C         -29.5454    3.0945  -39.4873 C.3        0 <0>       -0.345
      9 C         -29.6471    1.6453  -39.0288 C.3        0 <0>       -0.243
     10 O         -29.5499    3.9930  -37.3340 O.3        0 <0>       -0.370
     11 O         -31.4104    5.8543  -39.4769 O.3        0 <0>       -0.225
     12 H         -28.4900    3.3858  -39.5587 H          0 <0>        0.000
     13 H         -29.1759    1.4957  -38.0521 H          0 <0>        0.000
     14 H         -31.8620    5.3398  -38.7875 H          0 <0>        0.000
     15 O         -30.3045    4.5932  -35.0130 O.3        0 <0>       -0.160
     16 N         -28.9482    4.7637  -35.3082 N.am       0 <0>       -0.409
     17 C         -28.5460    4.2424  -36.4980 C.2        0 <0>       -0.564
     18 O         -27.3748    4.0454  -36.7952 O.2        0 <0>       -0.432
     19 O         -30.4814    4.5042  -33.5833 O.3        0 <0>       -0.004
     20 H         -30.9655    5.3436  -33.4891 H          0 <0>        0.000
     21 N         -30.1637   -1.0615  -36.2770 N.1        0 <0>       -0.247
     22 C         -30.7840   -0.4759  -37.0631 C.1        0 <0>       -0.213
     23 N         -26.1180    6.8008  -34.0135 N.3        0 <0>       -0.556
     24 C         -26.8380    5.5883  -34.4125 C.3        0 <0>       -0.603
     25 C         -28.2340    5.9553  -34.8930 C.3        0 <0>       -0.580
     26 N         -24.8168    6.4321  -33.5393 N.3        0 <0>       -0.587
     27 S         -24.1266    7.7108  -32.7491 S.3        0 <0>       -0.537
     28 H         -26.6417    7.2718  -33.2735 H          0 <0>        0.000
     29 H         -26.3058    5.0791  -35.2249 H          0 <0>        0.000
     30 H         -28.8141    6.4360  -34.0979 H          0 <0>        0.000
     31 H         -28.1917    6.6381  -35.7482 H          0 <0>        0.000
     32 H         -24.2192    6.1482  -34.3235 H          0 <0>        0.000
     33 H         -24.7815    7.6104  -31.5821 H          0 <0>        0.000
     34 N         -26.9302    3.9990  -32.3341 N.1        0 <0>       -0.028
     35 C         -26.8894    4.7032  -33.2551 C.1        0 <0>       -0.419
     36 O         -34.9113    0.0939  -40.6936 O.3        0 <0>       -0.005
     37 C         -34.6059    1.1780  -39.8256 C.3        0 <0>       -0.013
     38 O         -33.9701    0.2073  -41.7973 O.3        0 <0>       -0.010
     39 H         -35.2873    1.1426  -38.9719 H          0 <0>        0.000
     40 H         -34.2909   -0.5712  -42.2870 H          0 <0>        0.000
     41 N         -30.5682    3.2797  -41.8902 N.1        0 <0>       -0.163
     42 C         -30.1150    3.1976  -40.8255 C.1        0 <0>       -0.243
     43 N         -34.5766   -1.4228  -37.0543 N.1        0 <0>       -0.016
     44 C         -33.8250   -0.7260  -37.5976 C.1        0 <0>       -0.027
     45 N         -28.4429    0.0769  -40.7446 N.1        0 <0>        0.123
     46 C         -28.9764    0.7719  -39.9843 C.1        0 <0>       -0.023
     47 N         -34.9309    3.4523  -41.0809 N.1        0 <0>       -0.012
     48 C         -34.7869    2.4446  -40.5247 C.1        0 <0>       -0.013
@<TRIPOS>BOND
     1    2    1 ar 
     2    2    3 ar 
     3    3    4 ar 
     4    4    5 ar 
     5    1    5 ar 
     6    6    7 1  
     7    7    8 1  
     8    8    9 1  
     9    7   10 1  
    10    6   11 1  
    11    8   12 1  
    12    9   13 1  
    13   11   14 1  
    14    5    9 1  
    15   15   16 1  
    16   16   17 am 
    17   17   18 2  
    18   15   19 1  
    19   19   20 1  
    20   10   17 1  
    21   21   22 3  
    22    4   22 1  
    23   23   24 1  
    24   24   25 1  
    25   23   26 1  
    26   26   27 1  
    27   23   28 1  
    28   24   29 1  
    29   25   30 1  
    30   25   31 1  
    31   26   32 1  
    32   27   33 1  
    33   16   25 1  
    34   34   35 3  
    35   24   35 1  
    36   36   37 1  
    37   36   38 1  
    38   37   39 1  
    39   38   40 1  
    40    2   37 1  
    41   41   42 3  
    42    8   42 1  
    43   43   44 3  
    44    3   44 1  
    45   45   46 3  
    46    9   46 1  
    47   47   48 3  
    48   37   48 1  
