@<TRIPOS>MOLECULE
YEWHXVAVRXJMDJ-ZJFIUHRLSA-P
   52    52     1     1     1
SMALL
USER_CHARGES


@<TRIPOS>ATOM
      1 N1        -32.0820    1.6940  -39.7040 N.ar       0 <0>       -0.066
      2 C7        -33.1720    1.0560  -39.3210 C.ar       0 <0>       -0.037
      3 C8        -32.8920    0.1390  -38.2720 C.ar       0 <0>       -0.045
      4 C9        -31.5540    0.2510  -38.0390 C.ar       0 <0>       -0.121
      5 N2        -31.0790    1.2090  -38.9330 N.ar       0 <0>       -0.121
      6 H7        -34.1511    1.2109  -39.7497 H          0 <0>        0.000
      7 O         -30.1110    5.3055  -39.1851 O.3        0 <0>       -0.205
      8 N         -30.2829    3.9954  -38.5895 N.4        0 <0>       -0.261
      9 C         -29.5454    3.0945  -39.4873 C.3        0 <0>       -0.345
     10 C         -29.6471    1.6453  -39.0288 C.3        0 <0>       -0.243
     11 O         -29.5499    3.9930  -37.3340 O.3        0 <0>       -0.370
     12 O         -31.4104    5.8543  -39.4769 O.3        0 <0>       -0.225
     13 H         -28.4900    3.3858  -39.5587 H          0 <0>        0.000
     14 H         -29.1759    1.4957  -38.0521 H          0 <0>        0.000
     15 H         -31.8620    5.3398  -38.7875 H          0 <0>        0.000
     16 O         -30.3045    4.5932  -35.0130 O.3        0 <0>       -0.160
     17 N         -28.9482    4.7637  -35.3082 N.am       0 <0>       -0.409
     18 C         -28.5460    4.2424  -36.4980 C.2        0 <0>       -0.564
     19 O         -27.3748    4.0454  -36.7952 O.2        0 <0>       -0.432
     20 O         -30.4814    4.5042  -33.5833 O.3        0 <0>       -0.004
     21 H         -30.9655    5.3436  -33.4891 H          0 <0>        0.000
     22 N         -30.1637   -1.0615  -36.2770 N.1        0 <0>       -0.247
     23 C         -30.7840   -0.4759  -37.0631 C.1        0 <0>       -0.213
     24 N         -26.2695    6.6289  -33.5244 N.3        0 <0>       -0.590
     25 C         -26.9500    5.4685  -34.1059 C.3        0 <0>       -0.615
     26 C         -28.2757    5.9021  -34.7131 C.3        0 <0>       -0.588
     27 N         -25.0372    6.1960  -32.9346 N.3        0 <0>       -0.600
     28 S         -24.4318    7.3905  -31.9639 S.3        0 <0>       -0.578
     29 H         -26.8720    7.0474  -32.8133 H          0 <0>        0.000
     30 H         -26.3309    5.0177  -34.8909 H          0 <0>        0.000
     31 H         -28.9405    6.3268  -33.9533 H          0 <0>        0.000
     32 H         -28.1258    6.6525  -35.4967 H          0 <0>        0.000
     33 H         -25.2208    7.2071  -30.8940 H          0 <0>        0.000
     34 O         -21.8943    5.4420  -34.7456 O.3        0 <0>       -0.166
     35 C         -22.7087    6.0354  -33.7224 C.3        0 <0>       -0.484
     36 C         -24.1561    5.6476  -33.9757 C.3        0 <0>       -0.540
     37 O         -22.3073    5.5765  -32.4357 O.3        0 <0>       -0.296
     38 N         -20.5923    6.1058  -34.7800 N.4        0 <0>       -0.071
     39 H         -22.6142    7.1275  -33.7500 H          0 <0>        0.000
     40 H         -24.2738    4.5581  -33.9661 H          0 <0>        0.000
     41 H         -24.4888    6.0021  -34.9563 H          0 <0>        0.000
     42 H         -22.5377    4.6350  -32.4049 H          0 <0>        0.000
     43 H         -20.3859    6.0890  -35.7790 H          0 <0>        0.000
     44 H         -19.9970    5.3966  -34.3498 H          0 <0>        0.000
     45 N         -30.5682    3.2797  -41.8902 N.1        0 <0>       -0.163
     46 C         -30.1150    3.1976  -40.8255 C.1        0 <0>       -0.243
     47 N         -28.4429    0.0769  -40.7446 N.1        0 <0>        0.123
     48 C         -28.9764    0.7719  -39.9843 C.1        0 <0>       -0.023
     49 N         -34.5766   -1.4228  -37.0543 N.1        0 <0>       -0.016
     50 C         -33.8250   -0.7260  -37.5976 C.1        0 <0>       -0.027
     51 N         -27.4001    3.6481  -32.2790 N.1        0 <0>        0.125
     52 C         -27.2007    4.4547  -33.0885 C.1        0 <0>       -0.234
@<TRIPOS>BOND
     1    2    1 ar 
     2    2    3 ar 
     3    3    4 ar 
     4    4    5 ar 
     5    1    5 ar 
     6    6    2 1  
     7    7    8 1  
     8    8    9 1  
     9    9   10 1  
    10    8   11 1  
    11    7   12 1  
    12    9   13 1  
    13   10   14 1  
    14   12   15 1  
    15    5   10 1  
    16   16   17 1  
    17   17   18 am 
    18   18   19 2  
    19   16   20 1  
    20   20   21 1  
    21   11   18 1  
    22   22   23 3  
    23    4   23 1  
    24   24   25 1  
    25   25   26 1  
    26   24   27 1  
    27   27   28 1  
    28   24   29 1  
    29   25   30 1  
    30   26   31 1  
    31   26   32 1  
    32   28   33 1  
    33   17   26 1  
    34   34   35 1  
    35   35   36 1  
    36   35   37 1  
    37   34   38 1  
    38   35   39 1  
    39   36   40 1  
    40   36   41 1  
    41   37   42 1  
    42   38   43 1  
    43   38   44 1  
    44   27   36 1  
    45   45   46 3  
    46    9   46 1  
    47   47   48 3  
    48   10   48 1  
    49   49   50 3  
    50    3   50 1  
    51   51   52 3  
    52   25   52 1  
