# Name:          OHCQNLMUWVOVCZ-ULUSZKPHSA-N
# Creation time: 2019-02-16 19:33:17

@<TRIPOS>MOLECULE
OHCQNLMUWVOVCZ-ULUSZKPHSA-N
   24    24     1     1     1
SMALL
USER_CHARGES


@<TRIPOS>ATOM
      1 H1         29.9915   13.7372   25.9316 H          0 <0>        0.000
      2 H2         32.9797   13.7978   21.7661 H          0 <0>        0.000
      3 N7         31.5060   14.2480   23.1380 N.am       0 <0>       -0.470
      4 C8         32.7930   14.5390   22.4860 C.3        0 <0>       -1.140
      5 C11        32.7220   15.8910   21.7900 C.3        0 <0>       -1.416
      6 C19        30.0460   13.7400   24.8830 C.3        0 <0>       -0.718
      7 C20        31.4080   14.0330   24.4730 C.2        0 <0>       -1.170
      8 O21        32.3780   14.1170   25.2350 O.2        0 <0>       -2.525
      9 H32        30.6779   14.2076   22.5788 H          0 <0>        0.000
     10 H33        33.6143   14.5305   23.2177 H          0 <0>        0.000
     11 H34        33.6107   16.0272   21.1562 H          0 <0>        0.000
     12 H35        29.7488   12.7528   24.4996 H          0 <0>        0.000
     13 H36        29.3667   14.5079   24.4845 H          0 <0>        0.000
     14 C1         31.4866   15.9560   20.9400 C.2        0 <0>       -1.832
     15 O1         30.4038   16.1086   21.4854 O.2        0 <0>       -1.577
     16 O2         31.6095   15.8447   19.6133 O.3        0 <0>       -2.158
     17 H2         30.7786   15.8966   19.1520 H          0 <0>        0.000
     18 S1         31.5761   18.3094   22.7173 S.2        0 <0>       -3.066
     19 N1         33.1711   18.2506   24.7506 N.ar       0 <0>       -2.131
     20 C1         32.6738   16.9973   22.8385 C.ar       0 <0>       -1.543
     21 C2         33.4362   17.1359   23.9795 C.ar       0 <0>       -2.216
     22 C3         32.2089   18.9420   24.1816 C.ar       0 <0>       -2.299
     23 H2         34.2061   16.4459   24.2972 H          0 <0>        0.000
     24 H3         31.8311   19.8610   24.6083 H          0 <0>        0.000
@<TRIPOS>BOND
     1    6    1 1  
     2    4    2 1  
     3    4    5 1  
     4    4    3 1  
     5    3    7 am 
     6    7    8 2  
     7    7    6 1  
     8    3    9 1  
     9    4   10 1  
    10    5   11 1  
    11    6   12 1  
    12    6   13 1  
    13   14   15 2  
    14   14   16 1  
    15   16   17 1  
    16    5   14 1  
    17   18   20 ar 
    18   18   22 ar 
    19   19   21 ar 
    20   19   22 ar 
    21   20   21 ar 
    22   21   23 1  
    23   22   24 1  
    24    5   20 1  
