# Name:          LVXSWEJSPLSRLL-FMUUVHIJSA-N
# Creation time: 2019-02-16 19:33:17

@<TRIPOS>MOLECULE
LVXSWEJSPLSRLL-FMUUVHIJSA-N
   42    44     1     1     1
SMALL
USER_CHARGES


@<TRIPOS>ATOM
      1 H1         29.9915   13.7372   25.9316 H          0 <0>        0.000
      2 H2         32.9797   13.7978   21.7661 H          0 <0>        0.000
      3 H3         32.6888   16.6527   22.5119 H          0 <0>        0.000
      4 N7         31.5060   14.2480   23.1380 N.am       0 <0>       -0.470
      5 C8         32.7930   14.5390   22.4860 C.3        0 <0>       -1.140
      6 C11        32.7220   15.8910   21.7900 C.3        0 <0>       -1.416
      7 C19        30.0460   13.7400   24.8830 C.3        0 <0>       -0.718
      8 C20        31.4080   14.0330   24.4730 C.2        0 <0>       -1.170
      9 O21        32.3780   14.1170   25.2350 O.2        0 <0>       -2.525
     10 H51        30.6779   14.2076   22.5788 H          0 <0>        0.000
     11 H52        33.6143   14.5305   23.2177 H          0 <0>        0.000
     12 H53        31.8166   15.9386   21.1671 H          0 <0>        0.000
     13 H54        33.6107   16.0272   21.1562 H          0 <0>        0.000
     14 H55        29.3667   14.5079   24.4845 H          0 <0>        0.000
     15 C1         30.7499   10.4796   25.5737 C.2        0 <0>       -0.263
     16 C2         30.7710   11.4056   24.6061 C.2        0 <0>       -0.398
     17 C3         29.6299   12.3579   24.3462 C.3        0 <0>       -0.351
     18 C4         28.3190   11.8974   25.0331 C.3        0 <0>       -0.232
     19 C5         28.6222   11.5054   26.4986 C.3        0 <0>       -0.145
     20 C6         29.5846   10.2905   26.5131 C.3        0 <0>       -0.072
     21 H1         31.6116    9.8203   25.6933 H          0 <0>        0.000
     22 H3         29.4577   12.4472   23.2613 H          0 <0>        0.000
     23 H5         27.9047   11.0237   24.5030 H          0 <0>        0.000
     24 H6         27.5723   12.7084   24.9970 H          0 <0>        0.000
     25 H7         27.6902   11.2515   27.0311 H          0 <0>        0.000
     26 H8         29.0907   12.3612   27.0129 H          0 <0>        0.000
     27 H9         29.9541   10.1341   27.5399 H          0 <0>        0.000
     28 H10        29.0469    9.3817   26.1983 H          0 <0>        0.000
     29 S1         33.5358   11.4988   23.1266 S.3        0 <0>       -1.889
     30 C1         34.5190   10.5649   21.9411 C.2        0 <0>       -3.246
     31 N1         33.9604    9.4366   21.4841 C.2        0 <0>       -2.998
     32 C2         31.7043    8.1630   21.8760 C.ar       0 <0>       -2.320
     33 C3         30.4882    8.1822   22.5689 C.ar       0 <0>       -2.225
     34 C4         30.1855    9.2287   23.4508 C.ar       0 <0>       -1.681
     35 C5         31.0918   10.2754   23.6575 C.ar       0 <0>       -1.050
     36 C6         32.3027   10.2493   22.9635 C.ar       0 <0>       -1.465
     37 C7         32.5993    9.2119   22.0909 C.ar       0 <0>       -2.941
     38 H1         35.5039   10.9054   21.6233 H          0 <0>        0.000
     39 H2         31.9485    7.3582   21.1906 H          0 <0>        0.000
     40 H3         29.7736    7.3785   22.4209 H          0 <0>        0.000
     41 H4         29.2376    9.2283   23.9801 H          0 <0>        0.000
     42 H6         34.4239    8.7616   20.7652 H          0 <0>        0.000
@<TRIPOS>BOND
     1    7    1 1  
     2    5    2 1  
     3    6    3 1  
     4    5    6 1  
     5    5    4 1  
     6    4    8 am 
     7    8    9 2  
     8    8    7 1  
     9    4   10 1  
    10    5   11 1  
    11    6   12 1  
    12    6   13 1  
    13    7   14 1  
    14   15   16 2  
    15   15   20 1  
    16   16   17 1  
    17   17   18 1  
    18   18   19 1  
    19   19   20 1  
    20   15   21 1  
    21   17   22 1  
    22   18   23 1  
    23   18   24 1  
    24   19   25 1  
    25   19   26 1  
    26   20   27 1  
    27   20   28 1  
    28    7   17 1  
    29   30   29 1  
    30   29   36 1  
    31   31   30 2  
    32   37   31 1  
    33   32   33 ar 
    34   32   37 ar 
    35   33   34 ar 
    36   34   35 ar 
    37   35   36 ar 
    38   36   37 ar 
    39   30   38 1  
    40   32   39 1  
    41   33   40 1  
    42   34   41 1  
    43   31   42 1  
    44   16   35 1  
