# Name:          LXCUDMJJLKRXFC-SECBINFHSA-N
# Creation time: 2019-02-16 19:33:17

@<TRIPOS>MOLECULE
LXCUDMJJLKRXFC-SECBINFHSA-N
   29    29     1     1     1
SMALL
USER_CHARGES


@<TRIPOS>ATOM
      1 H1         29.9915   13.7372   25.9316 H          0 <0>        0.000
      2 H3         32.6888   16.6527   22.5119 H          0 <0>        0.000
      3 N7         31.5060   14.2480   23.1380 N.am       0 <0>       -0.470
      4 C8         32.7930   14.5390   22.4860 C.3        0 <0>       -1.140
      5 C11        32.7220   15.8910   21.7900 C.3        0 <0>       -1.416
      6 C19        30.0460   13.7400   24.8830 C.3        0 <0>       -0.718
      7 C20        31.4080   14.0330   24.4730 C.2        0 <0>       -1.170
      8 O21        32.3780   14.1170   25.2350 O.2        0 <0>       -2.525
      9 H37        30.6779   14.2076   22.5788 H          0 <0>        0.000
     10 H38        33.6143   14.5305   23.2177 H          0 <0>        0.000
     11 H39        33.6107   16.0272   21.1562 H          0 <0>        0.000
     12 H40        29.7488   12.7528   24.4996 H          0 <0>        0.000
     13 H41        29.3667   14.5079   24.4845 H          0 <0>        0.000
     14 C          33.0599   13.4794   21.4569 C.2        0 <0>       -1.434
     15 O          32.2358   12.5895   21.3127 O.2        0 <0>       -0.791
     16 O          34.1922   13.5577   20.7415 O.3        0 <0>       -1.607
     17 C5         34.3578   12.4966   19.7809 C.3        0 <0>        1.026
     18 H1         34.3988   11.5128   20.2748 H          0 <0>        0.000
     19 H2         35.3113   12.6625   19.2583 H          0 <0>        0.000
     20 H3         33.5471   12.5027   19.0350 H          0 <0>        0.000
     21 N1         33.9393   19.2294   21.2734 N.pl3      0 <0>       -4.719
     22 C1         33.7577   18.2008   22.0495 C.2        0 <0>       -3.368
     23 C2         33.1427   17.2572   21.3323 C.2        0 <0>       -2.336
     24 C3         32.9625   17.8374   19.9946 C.2        0 <0>       -3.543
     25 C4         33.4906   19.0617   20.0634 C.2        0 <0>       -5.111
     26 H1         34.3972   20.0986   21.5887 H          0 <0>        0.000
     27 H2         34.0512   18.1167   23.0962 H          0 <0>        0.000
     28 H4         32.4955   17.3644   19.1313 H          0 <0>        0.000
     29 H5         33.5341   19.7846   19.2484 H          0 <0>        0.000
@<TRIPOS>BOND
     1    6    1 1  
     2    5    2 1  
     3    4    5 1  
     4    4    3 1  
     5    3    7 am 
     6    7    8 2  
     7    7    6 1  
     8    3    9 1  
     9    4   10 1  
    10    5   11 1  
    11    6   12 1  
    12    6   13 1  
    13   14   15 2  
    14   14   16 1  
    15   16   17 1  
    16   17   18 1  
    17   17   19 1  
    18   17   20 1  
    19    4   14 1  
    20   21   22 1  
    21   21   25 1  
    22   22   23 2  
    23   23   24 1  
    24   24   25 2  
    25   21   26 1  
    26   22   27 1  
    27   24   28 1  
    28   25   29 1  
    29    5   23 1  
