# Name:          SLQRINOFWUKSDB-MRVPVSSYSA-N
# Creation time: 2019-02-16 19:33:17

@<TRIPOS>MOLECULE
SLQRINOFWUKSDB-MRVPVSSYSA-N
   30    29     1     1     1
SMALL
USER_CHARGES


@<TRIPOS>ATOM
      1 H1         29.9915   13.7372   25.9316 H          0 <0>        0.000
      2 H3         32.6888   16.6527   22.5119 H          0 <0>        0.000
      3 N7         31.5060   14.2480   23.1380 N.am       0 <0>       -0.470
      4 C8         32.7930   14.5390   22.4860 C.3        0 <0>       -1.140
      5 C11        32.7220   15.8910   21.7900 C.3        0 <0>       -1.416
      6 C19        30.0460   13.7400   24.8830 C.3        0 <0>       -0.718
      7 C20        31.4080   14.0330   24.4730 C.2        0 <0>       -1.170
      8 O21        32.3780   14.1170   25.2350 O.2        0 <0>       -2.525
      9 H38        30.6779   14.2076   22.5788 H          0 <0>        0.000
     10 H39        33.6143   14.5305   23.2177 H          0 <0>        0.000
     11 H40        31.8166   15.9386   21.1671 H          0 <0>        0.000
     12 H41        29.7488   12.7528   24.4996 H          0 <0>        0.000
     13 H42        29.3667   14.5079   24.4845 H          0 <0>        0.000
     14 N          31.6601   11.7844   22.5562 N.am       0 <0>       -0.712
     15 C          31.9317   12.4587   21.4173 C.2        0 <0>       -1.163
     16 O          31.2937   12.2900   20.3895 O.2        0 <0>       -1.309
     17 C4         33.0668   13.4519   21.4301 C.3        0 <0>       -1.451
     18 H1         32.1967   11.9388   23.3873 H          0 <0>        0.000
     19 H2         30.9122   11.1191   22.5758 H          0 <0>        0.000
     20 H4         33.1806   13.9358   20.4478 H          0 <0>        0.000
     21 H5         34.0066   12.9371   21.6803 H          0 <0>        0.000
     22 C1         32.6994   17.2481   21.0625 C.3        0 <0>       -2.685
     23 C2         34.0541   17.9049   21.1800 C.2        0 <0>       -3.276
     24 C3         34.2963   19.2545   20.5476 C.3        0 <0>       -5.234
     25 O4         34.9454   17.3497   21.7811 O.2        0 <0>       -2.982
     26 H5         32.4617   17.0927   20.0122 H          0 <0>        0.000
     27 H6         31.9452   17.8892   21.5142 H          0 <0>        0.000
     28 H8         33.6124   19.9839   20.9766 H          0 <0>        0.000
     29 H9         34.1288   19.1875   19.4747 H          0 <0>        0.000
     30 H10        35.3220   19.5644   20.7360 H          0 <0>        0.000
@<TRIPOS>BOND
     1    6    1 1  
     2    5    2 1  
     3    4    5 1  
     4    4    3 1  
     5    3    7 am 
     6    7    8 2  
     7    7    6 1  
     8    3    9 1  
     9    4   10 1  
    10    5   11 1  
    11    6   12 1  
    12    6   13 1  
    13   14   15 am 
    14   15   16 2  
    15   15   17 1  
    16   14   18 1  
    17   14   19 1  
    18   17   20 1  
    19   17   21 1  
    20    4   17 1  
    21   23   22 1  
    22   23   24 1  
    23   23   25 2  
    24   22   26 1  
    25   22   27 1  
    26   24   28 1  
    27   24   29 1  
    28   24   30 1  
    29    5   22 1  
