# Name:          BUZHKDGJEWJYBF-UHFFFAOYSA-N
# Creation time: 2019-02-16 19:33:17

@<TRIPOS>MOLECULE
BUZHKDGJEWJYBF-UHFFFAOYSA-N
   36    37     1     1     1
SMALL
USER_CHARGES


@<TRIPOS>ATOM
      1 H1         29.9915   13.7372   25.9316 H          0 <0>        0.000
      2 H2         32.9797   13.7978   21.7661 H          0 <0>        0.000
      3 H3         32.6888   16.6527   22.5119 H          0 <0>        0.000
      4 N7         31.5060   14.2480   23.1380 N.am       0 <0>       -0.470
      5 C8         32.7930   14.5390   22.4860 C.3        0 <0>       -1.140
      6 C11        32.7220   15.8910   21.7900 C.3        0 <0>       -1.416
      7 C19        30.0460   13.7400   24.8830 C.3        0 <0>       -0.718
      8 C20        31.4080   14.0330   24.4730 C.2        0 <0>       -1.170
      9 O21        32.3780   14.1170   25.2350 O.2        0 <0>       -2.525
     10 H45        30.6779   14.2076   22.5788 H          0 <0>        0.000
     11 H46        33.6143   14.5305   23.2177 H          0 <0>        0.000
     12 H47        31.8166   15.9386   21.1671 H          0 <0>        0.000
     13 H48        29.3667   14.5079   24.4845 H          0 <0>        0.000
     14 Br1        30.9389    8.4399   24.7479 Br         0 <0>       -1.557
     15 C1         29.9708    9.9816   24.2403 C.ar       0 <0>       -1.127
     16 C2         28.8797    9.8678   23.3789 C.ar       0 <0>        0.322
     17 C3         30.3481   11.2333   24.7264 C.ar       0 <0>       -0.358
     18 C4         28.1656   11.0058   23.0039 C.ar       0 <0>       -0.624
     19 C5         29.6340   12.3713   24.3514 C.ar       0 <0>       -0.349
     20 C6         28.5426   12.2577   23.4902 C.ar       0 <0>       -0.627
     21 H1         28.5727    8.9000   22.9909 H          0 <0>        0.000
     22 H2         31.1960   11.3395   25.3983 H          0 <0>        0.000
     23 H3         27.3158   10.9174   22.3333 H          0 <0>        0.000
     24 H5         27.9865   13.1438   23.1983 H          0 <0>        0.000
     25 C1         35.2154   16.0461   21.9774 C.2        0 <0>       -3.433
     26 C2         34.0037   16.5617   22.1903 C.2        0 <0>       -2.357
     27 C3         34.0696   17.9011   22.8649 C.3        0 <0>       -2.846
     28 C4         35.5145   17.8765   23.4269 C.3        0 <0>       -3.696
     29 C5         36.3087   16.9486   22.4715 C.3        0 <0>       -4.690
     30 H1         35.3943   15.0871   21.4914 H          0 <0>        0.000
     31 H3         33.3128   18.0195   23.6571 H          0 <0>        0.000
     32 H4         33.9412   18.6904   22.1072 H          0 <0>        0.000
     33 H5         35.4913   17.4088   24.4265 H          0 <0>        0.000
     34 H6         35.9583   18.8809   23.5208 H          0 <0>        0.000
     35 H7         36.7269   17.5054   21.6179 H          0 <0>        0.000
     36 H8         37.1135   16.4022   22.9893 H          0 <0>        0.000
@<TRIPOS>BOND
     1    7    1 1  
     2    5    2 1  
     3    6    3 1  
     4    5    6 1  
     5    5    4 1  
     6    4    8 am 
     7    8    9 2  
     8    8    7 1  
     9    4   10 1  
    10    5   11 1  
    11    6   12 1  
    12    7   13 1  
    13   14   15 1  
    14   15   16 ar 
    15   15   17 ar 
    16   16   18 ar 
    17   16   21 1  
    18   17   19 ar 
    19   17   22 1  
    20   18   20 ar 
    21   18   23 1  
    22   19   20 ar 
    23   20   24 1  
    24    7   19 1  
    25   25   26 2  
    26   25   29 1  
    27   26   27 1  
    28   27   28 1  
    29   28   29 1  
    30   25   30 1  
    31   27   31 1  
    32   27   32 1  
    33   28   33 1  
    34   28   34 1  
    35   29   35 1  
    36   29   36 1  
    37    6   26 1  
