# Name:          NMZNYXNTWHTKFY-UHFFFAOYSA-N
# Creation time: 2019-02-16 19:33:17

@<TRIPOS>MOLECULE
NMZNYXNTWHTKFY-UHFFFAOYSA-N
   28    28     1     1     1
SMALL
USER_CHARGES


@<TRIPOS>ATOM
      1 H2         32.9797   13.7978   21.7661 H          0 <0>        0.000
      2 H3         32.6888   16.6527   22.5119 H          0 <0>        0.000
      3 N7         31.5060   14.2480   23.1380 N.am       0 <0>       -0.470
      4 C8         32.7930   14.5390   22.4860 C.3        0 <0>       -1.140
      5 C11        32.7220   15.8910   21.7900 C.3        0 <0>       -1.416
      6 C19        30.0460   13.7400   24.8830 C.3        0 <0>       -0.718
      7 C20        31.4080   14.0330   24.4730 C.2        0 <0>       -1.170
      8 O21        32.3780   14.1170   25.2350 O.2        0 <0>       -2.525
      9 H36        30.6779   14.2076   22.5788 H          0 <0>        0.000
     10 H37        33.6143   14.5305   23.2177 H          0 <0>        0.000
     11 H38        31.8166   15.9386   21.1671 H          0 <0>        0.000
     12 H39        33.6107   16.0272   21.1562 H          0 <0>        0.000
     13 H40        29.7488   12.7528   24.4996 H          0 <0>        0.000
     14 H41        29.3667   14.5079   24.4845 H          0 <0>        0.000
     15 C1         29.5547   12.8460   26.9582 C.2        0 <0>       -1.000
     16 O1         28.6862   12.1820   26.4126 O.2        0 <0>       -0.218
     17 O2         30.3351   13.6959   26.2828 O.3        0 <0>       -1.011
     18 C1         29.3294   12.0309   29.3312 C.ar       0 <0>       -1.352
     19 C2         29.7989   11.9357   30.6447 C.ar       0 <0>       -1.972
     20 C3         31.0010   12.5528   31.0037 C.ar       0 <0>       -4.198
     21 C4         31.7334   13.2650   30.0494 C.ar       0 <0>       -3.457
     22 C5         31.2639   13.3603   28.7359 C.ar       0 <0>       -3.784
     23 C6         30.0618   12.7431   28.3769 C.ar       0 <0>       -2.095
     24 H1         28.3959   11.5516   29.0523 H          0 <0>        0.000
     25 H2         29.2301   11.3825   31.3857 H          0 <0>        0.000
     26 H3         31.3656   12.4789   32.0237 H          0 <0>        0.000
     27 H4         32.6669   13.7443   30.3283 H          0 <0>        0.000
     28 H5         31.8327   13.9134   27.9949 H          0 <0>        0.000
@<TRIPOS>BOND
     1    4    1 1  
     2    5    2 1  
     3    4    5 1  
     4    4    3 1  
     5    3    7 am 
     6    7    8 2  
     7    7    6 1  
     8    3    9 1  
     9    4   10 1  
    10    5   11 1  
    11    5   12 1  
    12    6   13 1  
    13    6   14 1  
    14   15   16 2  
    15   15   17 1  
    16    6   17 1  
    17   18   19 ar 
    18   18   23 ar 
    19   19   20 ar 
    20   20   21 ar 
    21   21   22 ar 
    22   22   23 ar 
    23   18   24 1  
    24   19   25 1  
    25   20   26 1  
    26   21   27 1  
    27   22   28 1  
    28   15   23 1  
