# Name:          AAXQGFGJTUWKPU-UHFFFAOYSA-N
# Creation time: 2019-02-16 19:33:17

@<TRIPOS>MOLECULE
AAXQGFGJTUWKPU-UHFFFAOYSA-N
   26    25     1     1     1
SMALL
USER_CHARGES


@<TRIPOS>ATOM
      1 H1         29.9915   13.7372   25.9316 H          0 <0>        0.000
      2 H2         32.9797   13.7978   21.7661 H          0 <0>        0.000
      3 N7         31.5060   14.2480   23.1380 N.am       0 <0>       -0.470
      4 C8         32.7930   14.5390   22.4860 C.3        0 <0>       -1.140
      5 C11        32.7220   15.8910   21.7900 C.3        0 <0>       -1.416
      6 C19        30.0460   13.7400   24.8830 C.3        0 <0>       -0.718
      7 C20        31.4080   14.0330   24.4730 C.2        0 <0>       -1.170
      8 O21        32.3780   14.1170   25.2350 O.2        0 <0>       -2.525
      9 H34        30.6779   14.2076   22.5788 H          0 <0>        0.000
     10 H35        33.6143   14.5305   23.2177 H          0 <0>        0.000
     11 H36        31.8166   15.9386   21.1671 H          0 <0>        0.000
     12 H37        33.6107   16.0272   21.1562 H          0 <0>        0.000
     13 H38        29.3667   14.5079   24.4845 H          0 <0>        0.000
     14 C1         30.2979   11.2783   25.1638 C.2        0 <0>       -0.269
     15 O2         29.6201   10.4652   25.7705 O.2        0 <0>       -0.126
     16 O3         31.6050   11.2147   25.2216 O.3        0 <0>       -0.378
     17 C4         29.6299   12.3579   24.3462 C.3        0 <0>       -0.351
     18 H5         31.8766   10.4716   25.7829 H          0 <0>        0.000
     19 H6         28.5495   12.2511   24.4183 H          0 <0>        0.000
     20 H8         29.9348   12.2660   23.3059 H          0 <0>        0.000
     21 H1         36.8936   17.7359   22.1969 H          0 <0>        0.000
     22 O1         34.7132   16.9888   23.6471 O.co2      0 <0>       -2.820
     23 O2         34.2951   18.3673   21.6856 O.co2      0 <0>       -3.581
     24 O3         36.4271   17.0147   21.7902 O.3        0 <0>       -4.846
     25 O4         34.1150   15.8561   21.4688 O.3        0 <0>       -1.629
     26 P1         34.8727   17.0808   22.1680 P.3        0 <0>       -3.721
@<TRIPOS>BOND
     1    6    1 1  
     2    4    2 1  
     3    4    5 1  
     4    4    3 1  
     5    3    7 am 
     6    7    8 2  
     7    7    6 1  
     8    3    9 1  
     9    4   10 1  
    10    5   11 1  
    11    5   12 1  
    12    6   13 1  
    13   14   15 2  
    14   14   16 1  
    15   14   17 1  
    16   16   18 1  
    17   17   19 1  
    18   17   20 1  
    19    6   17 1  
    20   24   21 1  
    21   26   22 ar 
    22   26   23 ar 
    23   26   24 1  
    24   25   26 1  
    25    5   25 1  
