# Name:          ZDDLVWDBTMMXNR-GHMZBOCLSA-N
# Creation time: 2019-02-16 19:33:17

@<TRIPOS>MOLECULE
ZDDLVWDBTMMXNR-GHMZBOCLSA-N
   40    40     1     1     1
SMALL
USER_CHARGES


@<TRIPOS>ATOM
      1 H1         29.9915   13.7372   25.9316 H          0 <0>        0.000
      2 H2         32.9797   13.7978   21.7661 H          0 <0>        0.000
      3 N7         31.5060   14.2480   23.1380 N.am       0 <0>       -0.470
      4 C8         32.7930   14.5390   22.4860 C.3        0 <0>       -1.140
      5 C11        32.7220   15.8910   21.7900 C.3        0 <0>       -1.416
      6 C19        30.0460   13.7400   24.8830 C.3        0 <0>       -0.718
      7 C20        31.4080   14.0330   24.4730 C.2        0 <0>       -1.170
      8 O21        32.3780   14.1170   25.2350 O.2        0 <0>       -2.525
      9 H48        30.6779   14.2076   22.5788 H          0 <0>        0.000
     10 H49        33.6143   14.5305   23.2177 H          0 <0>        0.000
     11 H50        31.8166   15.9386   21.1671 H          0 <0>        0.000
     12 H51        33.6107   16.0272   21.1562 H          0 <0>        0.000
     13 H52        29.3667   14.5079   24.4845 H          0 <0>        0.000
     14 O1         29.1181   10.1415   24.9919 O.3        0 <0>       -0.343
     15 O2         26.8855   10.9566   26.4856 O.3        0 <0>       -0.014
     16 C1         28.9205   11.5094   25.3875 C.3        0 <0>       -0.214
     17 C2         29.6299   12.3579   24.3462 C.3        0 <0>       -0.351
     18 C3         30.8002   11.4769   23.9875 C.3        0 <0>       -0.521
     19 C4         30.1761   10.0979   24.0226 C.3        0 <0>       -1.188
     20 C5         27.4373   11.8038   25.4998 C.3        0 <0>       -0.127
     21 H1         29.4010   11.6188   26.3677 H          0 <0>        0.000
     22 H3         28.9977   12.5075   23.4626 H          0 <0>        0.000
     23 H4         31.2525   11.7163   23.0217 H          0 <0>        0.000
     24 H5         31.5755   11.5565   24.7587 H          0 <0>        0.000
     25 H6         29.7306    9.8400   23.0560 H          0 <0>        0.000
     26 H7         30.8939    9.3190   24.2951 H          0 <0>        0.000
     27 H8         26.9241   11.5962   24.5550 H          0 <0>        0.000
     28 H9         27.2637   12.8458   25.7854 H          0 <0>        0.000
     29 H10        25.9364   11.1608   26.5425 H          0 <0>        0.000
     30 N          33.1387   17.2731   21.9261 N.am       0 <0>       -1.936
     31 C          33.7836   17.7066   23.0341 C.2        0 <0>       -2.462
     32 O          34.1468   18.8637   23.1772 O.2        0 <0>       -2.863
     33 C4         32.8521   18.2067   20.8412 C.3        0 <0>       -3.166
     34 C5         34.0579   16.7064   24.1291 C.3        0 <0>       -1.570
     35 H3         33.7908   18.6277   20.4488 H          0 <0>        0.000
     36 H4         32.2184   19.0285   21.2088 H          0 <0>        0.000
     37 H5         32.3245   17.7063   20.0135 H          0 <0>        0.000
     38 H1         33.1082   16.2866   24.4935 H          0 <0>        0.000
     39 H6         34.5820   17.1782   24.9746 H          0 <0>        0.000
     40 H7         34.6842   15.8909   23.7372 H          0 <0>        0.000
@<TRIPOS>BOND
     1    6    1 1  
     2    4    2 1  
     3    4    5 1  
     4    4    3 1  
     5    3    7 am 
     6    7    8 2  
     7    7    6 1  
     8    3    9 1  
     9    4   10 1  
    10    5   11 1  
    11    5   12 1  
    12    6   13 1  
    13   14   16 1  
    14   14   19 1  
    15   15   20 1  
    16   15   29 1  
    17   16   17 1  
    18   16   20 1  
    19   16   21 1  
    20   17   18 1  
    21   17   22 1  
    22   18   19 1  
    23   18   23 1  
    24   18   24 1  
    25   19   25 1  
    26   19   26 1  
    27   20   27 1  
    28   20   28 1  
    29    6   17 1  
    30   30   31 am 
    31   31   32 2  
    32   30   33 1  
    33   31   34 1  
    34   33   35 1  
    35   33   36 1  
    36   33   37 1  
    37   34   38 1  
    38   34   39 1  
    39   34   40 1  
    40    5   30 1  
