# Name:          IGEQUPIHTUQXCS-UHFFFAOYSA-N
# Creation time: 2019-02-16 19:33:17

@<TRIPOS>MOLECULE
IGEQUPIHTUQXCS-UHFFFAOYSA-N
   27    26     1     1     1
SMALL
USER_CHARGES


@<TRIPOS>ATOM
      1 H1         29.9915   13.7372   25.9316 H          0 <0>        0.000
      2 H2         32.9797   13.7978   21.7661 H          0 <0>        0.000
      3 H3         32.6888   16.6527   22.5119 H          0 <0>        0.000
      4 N7         31.5060   14.2480   23.1380 N.am       0 <0>       -0.470
      5 C8         32.7930   14.5390   22.4860 C.3        0 <0>       -1.140
      6 C11        32.7220   15.8910   21.7900 C.3        0 <0>       -1.416
      7 C19        30.0460   13.7400   24.8830 C.3        0 <0>       -0.718
      8 C20        31.4080   14.0330   24.4730 C.2        0 <0>       -1.170
      9 O21        32.3780   14.1170   25.2350 O.2        0 <0>       -2.525
     10 H36        33.6143   14.5305   23.2177 H          0 <0>        0.000
     11 H37        33.6107   16.0272   21.1562 H          0 <0>        0.000
     12 H38        29.7488   12.7528   24.4996 H          0 <0>        0.000
     13 H39        29.3667   14.5079   24.4845 H          0 <0>        0.000
     14 N          30.1675   13.1195   21.5966 N.am       0 <0>       -0.808
     15 C          30.3923   14.1937   22.3859 C.2        0 <0>       -0.478
     16 O          29.6279   15.1423   22.4610 O.2        0 <0>       -0.440
     17 C4         28.9602   13.0566   20.7785 C.3        0 <0>       -0.868
     18 H2         30.8222   12.3598   21.5642 H          0 <0>        0.000
     19 H3         28.9360   13.9046   20.0767 H          0 <0>        0.000
     20 H4         28.0671   13.0993   21.4209 H          0 <0>        0.000
     21 H5         28.9232   12.1226   20.1952 H          0 <0>        0.000
     22 S          33.3017   18.2370   20.6317 S.o2       0 <0>       -4.347
     23 O          33.3251   18.7092   19.2604 O.2        0 <0>       -5.314
     24 O          34.5422   18.1112   21.3727 O.2        0 <0>       -3.228
     25 N          32.5039   16.8058   20.6863 N.am       0 <0>       -2.422
     26 H1         31.8250   16.5810   19.9863 H          0 <0>        0.000
     27 H3         32.6676   18.8158   21.1609 H          0 <0>        0.000
@<TRIPOS>BOND
     1    7    1 1  
     2    5    2 1  
     3    6    3 1  
     4    5    6 1  
     5    5    4 1  
     6    4    8 am 
     7    8    9 2  
     8    8    7 1  
     9    5   10 1  
    10    6   11 1  
    11    7   12 1  
    12    7   13 1  
    13   14   15 am 
    14   15   16 2  
    15   14   17 1  
    16   14   18 1  
    17   17   19 1  
    18   17   20 1  
    19   17   21 1  
    20    4   15 am 
    21   22   23 2  
    22   22   24 2  
    23   22   25 1  
    24   25   26 1  
    25   22   27 1  
    26    6   25 1  
