# Name:          WQSJCCFFDGXKBN-UHFFFAOYSA-N
# Creation time: 2019-02-16 19:33:17

@<TRIPOS>MOLECULE
WQSJCCFFDGXKBN-UHFFFAOYSA-N
   28    28     1     1     1
SMALL
USER_CHARGES


@<TRIPOS>ATOM
      1 H1         29.9915   13.7372   25.9316 H          0 <0>        0.000
      2 H2         32.9797   13.7978   21.7661 H          0 <0>        0.000
      3 H3         32.6888   16.6527   22.5119 H          0 <0>        0.000
      4 N7         31.5060   14.2480   23.1380 N.am       0 <0>       -0.470
      5 C8         32.7930   14.5390   22.4860 C.3        0 <0>       -1.140
      6 C11        32.7220   15.8910   21.7900 C.3        0 <0>       -1.416
      7 C19        30.0460   13.7400   24.8830 C.3        0 <0>       -0.718
      8 C20        31.4080   14.0330   24.4730 C.2        0 <0>       -1.170
      9 O21        32.3780   14.1170   25.2350 O.2        0 <0>       -2.525
     10 H37        30.6779   14.2076   22.5788 H          0 <0>        0.000
     11 H38        33.6143   14.5305   23.2177 H          0 <0>        0.000
     12 H39        31.8166   15.9386   21.1671 H          0 <0>        0.000
     13 H40        29.7488   12.7528   24.4996 H          0 <0>        0.000
     14 S1         27.8178   16.9493   23.9114 S.2        0 <0>       -1.771
     15 N1         28.2931   14.4941   23.2567 N.ar       0 <0>       -0.204
     16 C1         28.9870   16.0875   24.8232 C.ar       0 <0>       -1.510
     17 C2         29.1042   14.8046   24.3305 C.ar       0 <0>       -0.713
     18 C3         27.5715   15.5492   22.9502 C.ar       0 <0>       -0.509
     19 H1         29.5156   16.5443   25.6476 H          0 <0>        0.000
     20 H3         26.8592   15.5423   22.1366 H          0 <0>        0.000
     21 N          33.6970   19.3514   20.6611 N.am       0 <0>       -4.248
     22 C          33.7237   18.1283   21.2348 C.2        0 <0>       -3.858
     23 O          34.6821   17.7283   21.8777 O.2        0 <0>       -2.956
     24 C4         32.5198   17.2353   21.0665 C.3        0 <0>       -2.711
     25 H1         32.9003   19.6583   20.1382 H          0 <0>        0.000
     26 H2         34.4826   19.9645   20.7568 H          0 <0>        0.000
     27 H3         31.6301   17.7298   21.4847 H          0 <0>        0.000
     28 H5         32.3516   17.0381   19.9971 H          0 <0>        0.000
@<TRIPOS>BOND
     1    7    1 1  
     2    5    2 1  
     3    6    3 1  
     4    5    6 1  
     5    5    4 1  
     6    4    8 am 
     7    8    9 2  
     8    8    7 1  
     9    4   10 1  
    10    5   11 1  
    11    6   12 1  
    12    7   13 1  
    13   14   16 ar 
    14   14   18 ar 
    15   15   17 ar 
    16   15   18 ar 
    17   16   17 ar 
    18   16   19 1  
    19   18   20 1  
    20    7   17 1  
    21   21   22 am 
    22   22   23 2  
    23   22   24 1  
    24   21   25 1  
    25   21   26 1  
    26   24   27 1  
    27   24   28 1  
    28    6   24 1  
