# created with PyMOL 2.2.0
@<TRIPOS>MOLECULE
1
86 89 1                 
SMALL
USER_CHARGES
@<TRIPOS>ATOM
1	   N	-24.453	-8.610	-42.330	N.pl3	1	UNL1	-0.281	
2	   N	-25.742	-5.851	-39.585	N.pl3	1	UNL1	-0.269	
3	   N	-25.775	-6.093	-37.304	N.pl3	1	UNL1	-0.295	
4	   N	-20.859	-8.472	-43.970	N.pl3	1	UNL1	-0.307	
5	   C	-25.415	-8.086	-41.466	C.2	1	UNL1	0.250	
6	   C	-26.239	-5.744	-40.915	C.3	1	UNL1	0.047	
7	   C	-26.002	-6.764	-41.859	C.3	1	UNL1	0.058	
8	   C	-26.284	-6.522	-43.218	C.3	1	UNL1	0.015	
9	   C	-26.934	-5.355	-43.617	C.3	1	UNL1	0.001	
10	   C	-27.307	-4.419	-42.667	C.3	1	UNL1	0.002	
11	   C	-26.953	-4.609	-41.330	C.3	1	UNL1	0.024	
12	   C	-26.520	-5.988	-38.452	C.2	1	UNL1	0.304	
13	   C	-26.407	-6.430	-36.043	C.3	1	UNL1	0.144	
14	   C	-26.573	-5.234	-35.150	C.3	1	UNL1	0.005	
15	   C	-26.571	-5.378	-33.761	C.3	1	UNL1	0.128	
16	   C	-26.724	-4.281	-32.917	C.3	1	UNL1	0.038	
17	   C	-26.896	-3.010	-33.461	C.3	1	UNL1	0.003	
18	   C	-26.933	-2.848	-34.848	C.3	1	UNL1	0.000	
19	   C	-26.778	-3.954	-35.688	C.3	1	UNL1	0.008	
20	   C	-23.571	-9.698	-42.085	C.3	1	UNL1	0.038	
21	   C	-22.164	-9.522	-42.132	C.3	1	UNL1	-0.009	
22	   C	-21.327	-10.589	-41.736	C.3	1	UNL1	0.007	
23	   C	-21.854	-11.820	-41.349	C.3	1	UNL1	0.000	
24	   C	-23.229	-12.009	-41.364	C.3	1	UNL1	0.002	
25	   C	-24.074	-10.958	-41.725	C.3	1	UNL1	0.023	
26	   C	-21.477	-8.285	-42.672	C.3	1	UNL1	0.141	
27	   C	-19.493	-8.426	-44.102	C.2	1	UNL1	0.247	
28	   C	-18.880	-8.547	-45.451	C.3	1	UNL1	0.072	
29	   C	-19.011	-7.593	-46.454	C.3	1	UNL1	0.135	
30	   C	-18.371	-7.758	-47.686	C.3	1	UNL1	0.039	
31	   C	-17.593	-8.893	-47.924	C.3	1	UNL1	0.003	
32	   C	-17.460	-9.860	-46.934	C.3	1	UNL1	0.001	
33	   C	-18.098	-9.686	-45.705	C.3	1	UNL1	0.016	
34	   O	-25.858	-8.636	-40.460	O.2	1	UNL1	-0.270	
35	   O	-27.744	-6.029	-38.417	O.2	1	UNL1	-0.252	
36	   O	-18.766	-8.286	-43.122	O.2	1	UNL1	-0.270	
37	   F	-26.424	-6.593	-33.213	 F	1	UNL1	-0.205	
38	   F	-19.744	-6.483	-46.266	 F	1	UNL1	-0.205	
39	 H01	-26.513	-6.066	-39.910	 H	1	UNL1	0.000	
40	 H02	-26.602	-7.105	-41.015	 H	1	UNL1	0.000	
41	 H03	-27.014	-7.297	-43.454	 H	1	UNL1	0.000	
42	 H04	-25.328	-6.541	-43.742	 H	1	UNL1	0.000	
43	 H05	-27.886	-5.715	-44.006	 H	1	UNL1	0.000	
44	 H06	-26.272	-4.848	-44.319	 H	1	UNL1	0.000	
45	 H07	-28.394	-4.493	-42.653	 H	1	UNL1	0.000	
46	 H08	-26.877	-3.466	-42.976	 H	1	UNL1	0.000	
47	 H09	-26.235	-3.806	-41.162	 H	1	UNL1	0.000	
48	 H10	-27.883	-4.605	-40.761	 H	1	UNL1	0.000	
49	 H11	-25.763	-7.143	-35.528	 H	1	UNL1	0.000	
50	 H12	-27.390	-6.856	-36.246	 H	1	UNL1	0.000	
51	 H13	-25.644	-5.575	-35.606	 H	1	UNL1	0.000	
52	 H14	-26.498	-4.722	-34.629	 H	1	UNL1	0.000	
53	 H15	-25.760	-4.213	-32.413	 H	1	UNL1	0.000	
54	 H16	-27.596	-4.480	-32.294	 H	1	UNL1	0.000	
55	 H17	-25.986	-2.485	-33.170	 H	1	UNL1	0.000	
56	 H18	-27.839	-2.624	-33.072	 H	1	UNL1	0.000	
57	 H19	-26.043	-2.253	-35.053	 H	1	UNL1	0.000	
58	 H20	-27.899	-2.404	-35.087	 H	1	UNL1	0.000	
59	 H21	-27.756	-4.041	-36.161	 H	1	UNL1	0.000	
60	 H22	-25.922	-3.743	-36.328	 H	1	UNL1	0.000	
61	 H23	-23.838	-9.526	-43.128	 H	1	UNL1	0.000	
62	 H24	-22.798	-8.792	-41.629	 H	1	UNL1	0.000	
63	 H25	-20.894	-10.216	-40.808	 H	1	UNL1	0.000	
64	 H26	-20.662	-10.788	-42.577	 H	1	UNL1	0.000	
65	 H27	-21.598	-11.887	-40.292	 H	1	UNL1	0.000	
66	 H28	-21.423	-12.572	-42.009	 H	1	UNL1	0.000	
67	 H29	-23.470	-12.175	-40.314	 H	1	UNL1	0.000	
68	 H30	-23.427	-12.826	-42.058	 H	1	UNL1	0.000	
69	 H31	-24.500	-11.314	-42.663	 H	1	UNL1	0.000	
70	 H32	-24.738	-10.793	-40.877	 H	1	UNL1	0.000	
71	 H33	-20.676	-8.040	-41.974	 H	1	UNL1	0.000	
72	 H34	-22.218	-7.490	-42.756	 H	1	UNL1	0.000	
73	 H35	-19.702	-7.837	-45.537	 H	1	UNL1	0.000	
74	 H36	-19.239	-8.385	-45.741	 H	1	UNL1	0.000	
75	 H37	-17.641	-6.948	-47.698	 H	1	UNL1	0.000	
76	 H38	-19.149	-7.744	-48.449	 H	1	UNL1	0.000	
77	 H39	-16.584	-8.491	-48.021	 H	1	UNL1	0.000	
78	 H40	-18.017	-9.390	-48.796	 H	1	UNL1	0.000	
79	 H41	-16.402	-9.815	-46.678	 H	1	UNL1	0.000	
80	 H42	-17.831	-10.795	-47.353	 H	1	UNL1	0.000	
81	 H43	-18.836	-10.488	-45.702	 H	1	UNL1	0.000	
82	 H44	-17.317	-9.703	-44.945	 H	1	UNL1	0.000	
83	   H	-24.344	-8.144	-43.234	 H	1	UNL1	0.155	
84	   H	-24.792	-5.507	-39.454	 H	1	UNL1	0.156	
85	   H	-24.769	-6.130	-37.366	 H	1	UNL1	0.151	
86	   H	-21.448	-8.508	-44.793	 H	1	UNL1	0.149	
@<TRIPOS>BOND
1 1 20 1
2 1 83 1
3 2 84 1
4 3 13 1
5 3 85 1
6 4 27 1
7 4 86 1
8 1 5 1
9 5 7 1
10 5 34 2
11 2 6 1
12 6 7 1
13 6 11 1
14 6 39 1
15 7 8 1
16 7 40 1
17 8 9 1
18 8 41 1
19 8 42 1
20 9 10 1
21 9 43 1
22 9 44 1
23 10 11 1
24 10 45 1
25 10 46 1
26 11 47 1
27 11 48 1
28 2 12 1
29 3 12 1
30 13 14 1
31 13 49 1
32 13 50 1
33 14 15 1
34 14 19 1
35 14 51 1
36 15 16 1
37 15 37 1
38 15 52 1
39 16 17 1
40 16 53 1
41 16 54 1
42 17 18 1
43 17 55 1
44 17 56 1
45 18 19 1
46 18 57 1
47 18 58 1
48 19 59 1
49 19 60 1
50 20 21 1
51 20 25 1
52 20 61 1
53 21 22 1
54 21 26 1
55 21 62 1
56 22 23 1
57 22 63 1
58 22 64 1
59 23 24 1
60 23 65 1
61 23 66 1
62 24 25 1
63 24 67 1
64 24 68 1
65 25 69 1
66 25 70 1
67 4 26 1
68 26 71 1
69 26 72 1
70 27 28 1
71 27 36 2
72 28 29 1
73 28 33 1
74 28 73 1
75 29 30 1
76 29 38 1
77 29 74 1
78 30 31 1
79 30 75 1
80 30 76 1
81 31 32 1
82 31 77 1
83 31 78 1
84 32 33 1
85 32 79 1
86 32 80 1
87 33 81 1
88 33 82 1
89 12 35 2
@<TRIPOS>SUBSTRUCTURE
1	UNL1	1	GROUP	1 ****	UNL
