# created with PyMOL 2.3.4
@<TRIPOS>MOLECULE
1
55 58 1 0 0
SMALL
USER_CHARGES


@<TRIPOS>ATOM
      1 N         -24.7270   -7.9560  -41.9750 N.pl3     1 UNL   -0.2800
      2 N         -25.8710   -5.5790  -39.0360 N.pl3     1 UNL   -0.2810
      3 C         -26.0150   -7.6550  -42.3840 C.2       1 UNL    0.2490
      4 C         -26.6300   -5.3230  -41.3980 C.3       1 UNL    0.0490
      5 C         -26.4550   -6.2270  -42.4710 C.3       1 UNL    0.0490
      6 C         -26.5730   -5.7530  -43.7980 C.3       1 UNL    0.0140
      7 C         -26.8120   -4.4110  -44.0700 C.3       1 UNL    0.0010
      8 C         -26.9200   -3.5150  -43.0130 C.3       1 UNL    0.0010
      9 C         -26.8470   -3.9640  -41.6890 C.3       1 UNL    0.0140
     10 C         -26.8570   -5.7780  -40.0040 C.2       1 UNL    0.2490
     11 C         -26.9050   -3.5670  -36.9970 C.3       1 UNL    0.0450
     12 C         -26.4980   -4.9830  -36.6960 C.3       1 UNL   -0.0290
     13 C         -25.9990   -5.9080  -37.6380 C.3       1 UNL    0.0370
     14 C         -25.6440   -7.1760  -37.1580 C.3       1 UNL    0.0230
     15 C         -25.7980   -7.5520  -35.8200 C.3       1 UNL    0.0020
     16 C         -26.3310   -6.6610  -34.9100 C.3       1 UNL    0.0000
     17 C         -26.6780   -5.3870  -35.3460 C.3       1 UNL    0.0050
     18 C         -24.2020   -9.2660  -41.8210 C.3       1 UNL    0.0500
     19 C         -23.0760   -9.7150  -42.5450 C.3       1 UNL    0.0650
     20 C         -22.5010  -10.9530  -42.1780 C.3       1 UNL    0.0190
     21 C         -23.0820  -11.7810  -41.2130 C.3       1 UNL    0.0010
     22 C         -24.2740  -11.4040  -40.6220 C.3       1 UNL    0.0020
     23 C         -24.8190  -10.1580  -40.9200 C.3       1 UNL    0.0240
     24 C         -20.8260   -8.6480  -43.9790 C.3       1 UNL    0.0790
     25 C         -20.4820   -7.8590  -42.8660 C.3       1 UNL    0.1390
     26 C         -19.1670   -7.4920  -42.5940 C.3       1 UNL    0.0390
     27 C         -18.1620   -7.8760  -43.4670 C.3       1 UNL    0.0030
     28 C         -18.4860   -8.6120  -44.6110 C.3       1 UNL    0.0010
     29 C         -19.8130   -8.9990  -44.8680 C.3       1 UNL    0.0200
     30 O         -26.8820   -8.4890  -42.6470 O.2       1 UNL   -0.2700
     31 O         -27.9730   -6.2530  -39.8140 O.2       1 UNL   -0.2700
     32 O         -22.5930  -10.1900  -45.1200 O.3       1 UNL   -0.2470
     33 F         -21.4270   -7.4070  -42.0310 F         1 UNL   -0.2040
     34 S         -22.5700   -9.0340  -44.1590 S.O       1 UNL    0.0900
     35 HN        -24.1118   -7.1818  -41.7698 H         1 UNL    0.0000
     36 HN1       -24.9979   -5.1719  -39.3393 H         1 UNL    0.0000
     37 HC        -26.4753   -6.4489  -44.6181 H         1 UNL    0.0000
     38 HC1       -26.9125   -4.0690  -45.0895 H         1 UNL    0.0000
     39 HC2       -27.0614   -2.4635  -43.2148 H         1 UNL    0.0000
     40 HC3       -26.9588   -3.2573  -40.8800 H         1 UNL    0.0000
     41 HC4       -25.2334   -7.8944  -37.8521 H         1 UNL    0.0000
     42 HC5       -25.5001   -8.5391  -35.4986 H         1 UNL    0.0000
     43 HC6       -26.4757   -6.9481  -33.8790 H         1 UNL    0.0000
     44 HC7       -27.0957   -4.6855  -34.6390 H         1 UNL    0.0000
     45 HC8       -21.5860  -11.2685  -42.6571 H         1 UNL    0.0000
     46 HC9       -22.6038  -12.7075  -40.9314 H         1 UNL    0.0000
     47 HC10      -24.7771  -12.0695  -39.9361 H         1 UNL    0.0000
     48 HC11      -25.7441   -9.8653  -40.4458 H         1 UNL    0.0000
     49 HC12      -18.9328   -6.9143  -41.7121 H         1 UNL    0.0000
     50 HC13      -17.1352   -7.6087  -43.2653 H         1 UNL    0.0000
     51 HC14      -17.7066   -8.8868  -45.3063 H         1 UNL    0.0000
     52 HC15      -20.0469   -9.5687  -45.7552 H         1 UNL    0.0000
     53 HC16      -26.7297   -3.3544  -38.0516 H         1 UNL    0.0000
     54 HC17      -26.3167   -2.8824  -36.3859 H         1 UNL    0.0000
     55 HC18      -27.9635   -3.4374  -36.7713 H         1 UNL    0.0000
@<TRIPOS>BOND
     1    1   18 1
     2    2   10 1
     3    2   13 1
     4    1    3 1
     5    3    5 1
     6    3   30 2
     7    4    5 1
     8    4    9 1
     9    4   10 1
    10    5    6 1
    11    6    7 1
    12    7    8 1
    13    8    9 1
    14   10   31 2
    15   11   12 1
    16   12   13 1
    17   12   17 1
    18   13   14 1
    19   14   15 1
    20   15   16 1
    21   16   17 1
    22   18   19 1
    23   18   23 1
    24   19   20 1
    25   19   34 1
    26   20   21 1
    27   21   22 1
    28   22   23 1
    29   24   25 1
    30   24   29 1
    31   25   26 1
    32   25   33 1
    33   26   27 1
    34   27   28 1
    35   28   29 1
    36   24   34 1
    37   32   34 1
    38   35    1 1
    39   36    2 1
    40   37    6 1
    41   38    7 1
    42   39    8 1
    43   40    9 1
    44   41   14 1
    45   42   15 1
    46   43   16 1
    47   44   17 1
    48   45   20 1
    49   46   21 1
    50   47   22 1
    51   48   23 1
    52   49   26 1
    53   50   27 1
    54   51   28 1
    55   52   29 1
    56   53   11 1
    57   54   11 1
    58   55   11 1
@<TRIPOS>SUBSTRUCTURE
     1 UNL     1 RESIDUE           4 A     UNL     0 ROOT
