# created with PyMOL 2.2.0
@<TRIPOS>MOLECULE
1
86 89 1                 
SMALL
USER_CHARGES
@<TRIPOS>ATOM
1	   N	-26.354	-5.870	-37.426	N.pl3	1	UNL1	-0.307	
2	   N	-25.983	-7.797	-32.675	N.pl3	1	UNL1	-0.325	
3	   N	-26.150	-8.081	-41.495	N.3	1	UNL1	-0.339	
4	   N	-20.941	-8.981	-42.684	N.pl3	1	UNL1	-0.279	
5	   C	-26.584	-6.076	-40.067	C.3	1	UNL1	0.057	
6	   C	-26.517	-6.712	-41.342	C.3	1	UNL1	0.040	
7	   C	-26.871	-5.966	-42.526	C.3	1	UNL1	0.024	
8	   C	-27.120	-4.601	-42.534	C.3	1	UNL1	0.002	
9	   C	-27.080	-3.944	-41.326	C.3	1	UNL1	0.001	
10	   C	-26.838	-4.667	-40.128	C.3	1	UNL1	0.015	
11	   C	-26.392	-6.679	-38.593	C.2	1	UNL1	0.246	
12	   C	-26.386	-6.289	-35.907	C.3	1	UNL1	0.140	
13	   C	-26.812	-5.486	-33.305	C.3	1	UNL1	0.041	
14	   C	-26.681	-5.280	-34.743	C.3	1	UNL1	-0.018	
15	   C	-26.664	-3.922	-35.154	C.3	1	UNL1	0.006	
16	   C	-26.872	-2.836	-34.287	C.3	1	UNL1	0.000	
17	   C	-27.098	-3.047	-32.943	C.3	1	UNL1	0.001	
18	   C	-27.054	-4.345	-32.468	C.3	1	UNL1	0.013	
19	   C	-26.727	-6.708	-32.377	C.2	1	UNL1	0.242	
20	   C	-24.742	-8.372	-41.910	C.3	1	UNL1	0.137	
21	   C	-24.204	-9.768	-41.605	C.3	1	UNL1	-0.018	
22	   C	-23.035	-10.279	-42.232	C.3	1	UNL1	0.042	
23	   C	-22.521	-11.522	-41.786	C.3	1	UNL1	0.013	
24	   C	-23.132	-12.245	-40.748	C.3	1	UNL1	0.001	
25	   C	-24.283	-11.749	-40.150	C.3	1	UNL1	0.000	
26	   C	-24.826	-10.544	-40.594	C.3	1	UNL1	0.006	
27	   C	-22.156	-9.462	-43.166	C.2	1	UNL1	0.249	
28	   C	-19.796	-8.585	-43.457	C.3	1	UNL1	0.069	
29	   C	-19.102	-7.421	-43.082	C.3	1	UNL1	0.144	
30	   C	-17.888	-7.042	-43.674	C.3	1	UNL1	0.040	
31	   C	-17.340	-7.824	-44.684	C.3	1	UNL1	0.003	
32	   C	-18.038	-8.951	-45.118	C.3	1	UNL1	0.002	
33	   C	-19.258	-9.323	-44.516	C.3	1	UNL1	0.026	
34	   O	-26.273	-7.902	-38.501	O.2	1	UNL1	-0.270	
35	   O	-27.264	-6.717	-31.282	O.2	1	UNL1	-0.270	
36	   O	-22.566	-9.296	-44.312	O.2	1	UNL1	-0.270	
37	   F	-19.603	-6.641	-42.111	 F	1	UNL1	-0.204	
38	 H01	-26.513	-7.157	-39.950	 H	1	UNL1	0.000	
39	 H02	-25.735	-6.765	-40.584	 H	1	UNL1	0.000	
40	 H03	-27.866	-6.361	-42.731	 H	1	UNL1	0.000	
41	 H04	-26.054	-6.123	-43.231	 H	1	UNL1	0.000	
42	 H05	-28.153	-4.508	-42.868	 H	1	UNL1	0.000	
43	 H06	-26.379	-4.136	-43.184	 H	1	UNL1	0.000	
44	 H07	-28.104	-3.592	-41.201	 H	1	UNL1	0.000	
45	 H08	-26.295	-3.192	-41.403	 H	1	UNL1	0.000	
46	 H09	-25.860	-4.274	-39.850	 H	1	UNL1	0.000	
47	 H10	-27.714	-4.499	-39.502	 H	1	UNL1	0.000	
48	 H11	-25.337	-6.525	-35.727	 H	1	UNL1	0.000	
49	 H12	-27.144	-7.069	-35.827	 H	1	UNL1	0.000	
50	 H13	-26.708	-6.109	-34.194	 H	1	UNL1	0.000	
51	 H14	-27.254	-6.176	-34.505	 H	1	UNL1	0.000	
52	 H15	-27.568	-3.878	-35.761	 H	1	UNL1	0.000	
53	 H16	-25.683	-3.760	-35.601	 H	1	UNL1	0.000	
54	 H17	-27.820	-2.424	-34.633	 H	1	UNL1	0.000	
55	 H18	-25.987	-2.203	-34.360	 H	1	UNL1	0.000	
56	 H19	-28.133	-2.740	-32.792	 H	1	UNL1	0.000	
57	 H20	-26.348	-2.476	-32.395	 H	1	UNL1	0.000	
58	 H21	-26.143	-4.322	-31.870	 H	1	UNL1	0.000	
59	 H22	-28.019	-4.522	-31.993	 H	1	UNL1	0.000	
60	 H23	-24.127	-7.696	-41.316	 H	1	UNL1	0.000	
61	 H24	-24.679	-8.223	-42.988	 H	1	UNL1	0.000	
62	 H25	-24.637	-9.873	-42.600	 H	1	UNL1	0.000	
63	 H26	-23.730	-10.394	-43.064	 H	1	UNL1	0.000	
64	 H27	-21.571	-11.232	-41.337	 H	1	UNL1	0.000	
65	 H28	-22.513	-12.180	-42.655	 H	1	UNL1	0.000	
66	 H29	-22.394	-12.211	-39.946	 H	1	UNL1	0.000	
67	 H30	-23.382	-13.227	-41.150	 H	1	UNL1	0.000	
68	 H31	-23.964	-11.524	-39.132	 H	1	UNL1	0.000	
69	 H32	-25.056	-12.508	-40.271	 H	1	UNL1	0.000	
70	 H33	-25.740	-10.873	-41.088	 H	1	UNL1	0.000	
71	 H34	-24.901	-9.901	-39.717	 H	1	UNL1	0.000	
72	 H35	-20.709	-8.859	-43.986	 H	1	UNL1	0.000	
73	 H36	-19.067	-8.031	-43.985	 H	1	UNL1	0.000	
74	 H37	-17.169	-7.138	-42.861	 H	1	UNL1	0.000	
75	 H38	-18.036	-6.046	-44.090	 H	1	UNL1	0.000	
76	 H39	-16.434	-8.233	-44.237	 H	1	UNL1	0.000	
77	 H40	-17.203	-7.178	-45.551	 H	1	UNL1	0.000	
78	 H41	-17.373	-9.768	-44.839	 H	1	UNL1	0.000	
79	 H42	-18.247	-8.799	-46.177	 H	1	UNL1	0.000	
80	 H43	-19.979	-9.153	-45.315	 H	1	UNL1	0.000	
81	 H44	-19.125	-10.340	-44.148	 H	1	UNL1	0.000	
82	   H	-26.815	-4.985	-37.607	 H	1	UNL1	0.149	
83	   H	-25.285	-7.815	-33.384	 H	1	UNL1	0.145	
84	   H	-25.867	-8.413	-31.867	 H	1	UNL1	0.145	
85	   H	-26.755	-8.423	-42.247	 H	1	UNL1	0.146	
86	   H	-20.801	-8.948	-41.680	 H	1	UNL1	0.155	
@<TRIPOS>BOND
1 1 11 1
2 1 12 1
3 1 82 1
4 2 19 1
5 2 83 1
6 2 84 1
7 3 20 1
8 3 85 1
9 4 28 1
10 4 86 1
11 5 6 1
12 5 10 1
13 5 11 1
14 5 38 1
15 3 6 1
16 6 7 1
17 6 39 1
18 7 8 1
19 7 40 1
20 7 41 1
21 8 9 1
22 8 42 1
23 8 43 1
24 9 10 1
25 9 44 1
26 9 45 1
27 10 46 1
28 10 47 1
29 11 34 2
30 12 14 1
31 12 48 1
32 12 49 1
33 13 14 1
34 13 18 1
35 13 19 1
36 13 50 1
37 14 15 1
38 14 51 1
39 15 16 1
40 15 52 1
41 15 53 1
42 16 17 1
43 16 54 1
44 16 55 1
45 17 18 1
46 17 56 1
47 17 57 1
48 18 58 1
49 18 59 1
50 19 35 2
51 20 21 1
52 20 60 1
53 20 61 1
54 21 22 1
55 21 26 1
56 21 62 1
57 22 23 1
58 22 27 1
59 22 63 1
60 23 24 1
61 23 64 1
62 23 65 1
63 24 25 1
64 24 66 1
65 24 67 1
66 25 26 1
67 25 68 1
68 25 69 1
69 26 70 1
70 26 71 1
71 4 27 1
72 27 36 2
73 28 29 1
74 28 33 1
75 28 72 1
76 29 30 1
77 29 37 1
78 29 73 1
79 30 31 1
80 30 74 1
81 30 75 1
82 31 32 1
83 31 76 1
84 31 77 1
85 32 33 1
86 32 78 1
87 32 79 1
88 33 80 1
89 33 81 1
@<TRIPOS>SUBSTRUCTURE
1	UNL1	1	GROUP	1 ****	UNL
