@<TRIPOS>MOLECULE
5ee7.pdb
67 71 1 0 0
SMALL
AMBER ff14SB


@<TRIPOS>ATOM
      1 N1        -32.0820    1.6940  -39.7040 N.ar      1 5MV   -0.1803
      2 N3        -27.2990    5.9770  -34.7060 N.am      1 5MV   -0.3110
      3 C4        -37.0510    1.8110  -41.0300 C.ar      1 5MV   -0.0248
      4 C5        -36.9220    1.2550  -39.7500 C.ar      1 5MV    0.0427
      5 C6        -35.6450    1.0170  -39.2110 C.ar      1 5MV   -0.0339
      6 C7        -33.1720    1.0560  -39.3210 C.ar      1 5MV    0.0907
      7 C8        -32.8920    0.1390  -38.2720 C.ar      1 5MV   -0.0104
      8 C10       -30.4550   -1.1390  -34.6860 C.ar      1 5MV   -0.0536
      9 C13       -29.5540   -1.1570  -37.3610 C.ar      1 5MV   -0.0451
     10 C15       -29.2750   -1.8180  -35.0100 C.ar      1 5MV   -0.0158
     11 C17       -27.3550   -3.1760  -34.3070 C.ar      1 5MV    0.0751
     12 C20       -29.7320    1.7480  -39.1140 C.3       1 5MV    0.0678
     13 C21       -28.9070    4.7000  -35.9900 C.ar      1 5MV    0.0370
     14 C22       -27.8660    3.9620  -36.5820 C.ar      1 5MV   -0.0493
     15 C24       -29.4690    2.8000  -38.0220 C.ar      1 5MV   -0.0258
     16 C26       -30.2370    4.4870  -36.4060 C.ar      1 5MV   -0.0493
     17 C28       -28.5870    5.6900  -34.9220 C.2       1 5MV    0.2429
     18 C1        -34.4770    1.3250  -39.9410 C.ar      1 5MV    0.0048
     19 C2        -34.6150    1.8920  -41.2300 C.ar      1 5MV   -0.0339
     20 C3        -35.8960    2.1280  -41.7650 C.ar      1 5MV    0.0427
     21 CL1       -36.0690    2.8080  -43.3360 Cl        1 5MV   -0.0843
     22 CL2       -38.3270    0.8630  -38.8340 Cl        1 5MV   -0.0843
     23 C9        -31.5540    0.2510  -38.0390 C.ar      1 5MV    0.0609
     24 C11       -31.1680   -0.4810  -35.6930 C.ar      1 5MV   -0.0524
     25 C12       -30.7470   -0.4710  -37.0400 C.ar      1 5MV   -0.0018
     26 C14       -28.8220   -1.8290  -36.3510 C.ar      1 5MV   -0.0175
     27 C16       -28.5510   -2.4830  -33.9990 C.ar      1 5MV   -0.0239
     28 C18       -26.9110   -3.1820  -35.6440 C.ar      1 5MV   -0.0312
     29 C19       -27.6340   -2.5190  -36.6550 C.ar      1 5MV   -0.0518
     30 C25       -30.5150    3.5410  -37.4120 C.ar      1 5MV   -0.0563
     31 N2        -31.0790    1.2090  -38.9330 N.ar      1 5MV   -0.2171
     32 O1        -26.5950   -3.8490  -33.3750 O.3       1 5MV   -0.3493
     33 C27       -26.6640   -3.3970  -32.0290 C.3       1 5MV    0.0422
     34 O2        -29.5060    6.1930  -34.2850 O.2       1 5MV   -0.2719
     35 C29       -26.8570    6.9180  -33.6870 C.3       1 5MV    0.0165
     36 C30       -27.0710    6.3810  -32.2630 C.3       1 5MV    0.0025
     37 C31       -26.5520    7.3620  -31.2210 C.2       1 5MV    0.0429
     38 O3        -27.3490    7.7650  -30.3480 O.co2     1 5MV   -0.5501
     39 O4        -25.3480    7.7050  -31.3010 O.co2     1 5MV   -0.5501
     40 C32       -29.5920    2.3540  -40.5240 C.3       1 5MV   -0.0403
     41 C23       -28.1450    3.0210  -37.5850 C.ar      1 5MV   -0.0563
     42 H3        -26.6012    5.5202  -35.2756 H         1 5MV    0.1497
     43 H4        -38.0298    1.9943  -41.4480 H         1 5MV    0.0654
     44 H6        -35.5567    0.5916  -38.2223 H         1 5MV    0.0646
     45 H8        -33.5919   -0.5097  -37.7662 H         1 5MV    0.0667
     46 H10       -30.8120   -1.1233  -33.6668 H         1 5MV    0.0629
     47 H13       -29.1986   -1.1691  -38.3808 H         1 5MV    0.0636
     48 H20       -29.0105    0.9383  -39.0048 H         1 5MV    0.0575
     49 H22       -26.8465    4.1205  -36.2629 H         1 5MV    0.0631
     50 H26       -31.0415    5.0482  -35.9541 H         1 5MV    0.0631
     51 H2        -33.7361    2.1443  -41.8047 H         1 5MV    0.0646
     52 H11       -32.0766    0.0400  -35.4296 H         1 5MV    0.0630
     53 H16       -28.9117   -2.4636  -32.9812 H         1 5MV    0.0657
     54 H18       -26.0004   -3.7040  -35.8983 H         1 5MV    0.0651
     55 H19       -27.2732   -2.5405  -37.6727 H         1 5MV    0.0630
     56 H25       -31.5362    3.3775  -37.7230 H         1 5MV    0.0627
     57 H292      -25.7948    7.1162  -33.8305 H         1 5MV    0.0471
     58 H293      -27.4102    7.8502  -33.8013 H         1 5MV    0.0471
     59 H302      -26.5399    5.4351  -32.1563 H         1 5MV    0.0345
     60 H303      -28.1357    6.2145  -32.0992 H         1 5MV    0.0345
     61 H23       -27.3365    2.4587  -38.0282 H         1 5MV    0.0627
     62 H321      -28.5428    2.5714  -40.7241 H         1 5MV    0.0254
     63 H322      -29.9629    1.6437  -41.2629 H         1 5MV    0.0254
     64 H323      -30.1716    3.2753  -40.5827 H         1 5MV    0.0254
     65 H271      -25.8652   -3.8588  -31.4487 H         1 5MV    0.0535
     66 H272      -26.5512   -2.3131  -32.0037 H         1 5MV    0.0535
     67 H273      -27.6286   -3.6719  -31.6024 H         1 5MV    0.0535
@<TRIPOS>BOND
     1    1    6 ar
     2    1   31 ar
     3    2   17 am
     4    2   35 1
     5    3    4 ar
     6    3   20 ar
     7    4    5 ar
     8    4   22 1
     9    5   18 ar
    10    6    7 ar
    11    6   18 1
    12    7   23 ar
    13    8   10 ar
    14    8   24 ar
    15    9   25 ar
    16    9   26 ar
    17   10   26 ar
    18   10   27 ar
    19   11   27 ar
    20   11   28 ar
    21   11   32 1
    22   12   15 1
    23   12   31 1
    24   12   40 1
    25   13   14 ar
    26   13   16 ar
    27   13   17 1
    28   14   41 ar
    29   15   30 ar
    30   15   41 ar
    31   16   30 ar
    32   17   34 2
    33   18   19 ar
    34   19   20 ar
    35   20   21 1
    36   23   25 1
    37   23   31 ar
    38   24   25 ar
    39   26   29 ar
    40   28   29 ar
    41   32   33 1
    42   35   36 1
    43   36   37 1
    44   37   38 2
    45   37   39 2
    46   42    2 1
    47   43    3 1
    48   44    5 1
    49   45    7 1
    50   46    8 1
    51   47    9 1
    52   48   12 1
    53   49   14 1
    54   50   16 1
    55   51   19 1
    56   52   24 1
    57   53   27 1
    58   54   28 1
    59   55   29 1
    60   56   30 1
    61   57   35 1
    62   58   35 1
    63   59   36 1
    64   60   36 1
    65   61   41 1
    66   62   40 1
    67   63   40 1
    68   64   40 1
    69   65   33 1
    70   66   33 1
    71   67   33 1
@<TRIPOS>SUBSTRUCTURE
     1 5MV     1 RESIDUE           4 A     5MV     0 ROOT
