MODEL 1
REMARK VINA RESULT:      -9.5      0.000      0.000
REMARK  12 active torsions:
REMARK  status: ('A' for Active; 'I' for Inactive)
REMARK    1  A    between atoms: N2_3  and  C2_4 
REMARK    2  A    between atoms: C2_4  and  C20_13 
REMARK    3  A    between atoms: C3_5  and  C31_20 
REMARK    4  A    between atoms: C4_6  and  O4_7 
REMARK    5  A    between atoms: C5_8  and  O5_9 
REMARK    6  A    between atoms: C6_10  and  C61_27 
REMARK    7  A    between atoms: N7_11  and  C7_12 
REMARK    8  A    between atoms: C7_12  and  C70_34 
REMARK    9  A    between atoms: C28_17  and  N29_18 
REMARK   10  A    between atoms: C31_20  and  C32_21 
REMARK   11  A    between atoms: C61_27  and  C62_28 
REMARK   12  A    between atoms: C72_36  and  N79_37 
ROOT
ATOM      1  C1  DMQ d          -8.745  15.455  27.559  0.00  0.00     0.322 C 
ATOM      2  O1  DMQ d          -8.052  14.460  27.644  0.00  0.00    -0.247 OA
ATOM      3  N2  DMQ d          -9.632  15.611  28.550  0.00  0.00    -0.322 N 
ATOM      4  C3  DMQ d         -10.855  16.450  28.394  0.00  0.00     0.124 C 
ATOM      5  C4  DMQ d         -10.682  17.928  28.219  0.00  0.00     0.172 C 
ATOM      6  C5  DMQ d         -10.146  18.351  26.873  0.00  0.00     0.172 C 
ATOM      7  C6  DMQ d          -8.767  17.805  26.552  0.00  0.00     0.124 C 
ATOM      8  N7  DMQ d          -8.613  16.312  26.494  0.00  0.00    -0.322 N 
ENDROOT
BRANCH   3   9
ATOM      9  C2  DMQ d          -9.458  14.757  29.770  0.00  0.00     0.166 C 
BRANCH   9  10
ATOM     10  C20 DMQ d          -9.298  15.511  31.053  0.00  0.00    -0.038 A 
ATOM     11  C29 DMQ d         -10.120  15.234  32.151  0.00  0.00     0.037 A 
ATOM     12  C28 DMQ d          -9.983  16.010  33.322  0.00  0.00     0.026 A 
ATOM     13  C23 DMQ d          -8.999  17.027  33.406  0.00  0.00     0.029 A 
ATOM     14  C22 DMQ d          -8.169  17.297  32.314  0.00  0.00     0.003 A 
ATOM     15  C21 DMQ d          -8.340  16.534  31.146  0.00  0.00     0.009 A 
BRANCH  12  16
ATOM     16  N29 DMQ d         -10.929  15.897  34.376  0.00  0.00    -0.399 N 
ATOM     17  H14 DMQ d         -10.952  16.604  35.125  0.00  0.00     0.156 HD
ATOM     18  H15 DMQ d         -11.593  15.110  34.390  0.00  0.00     0.156 HD
ENDBRANCH  12  16
ENDBRANCH   9  10
ENDBRANCH   3   9
BRANCH   4  19
ATOM     19  C31 DMQ d         -11.851  15.762  27.442  0.00  0.00     0.066 C 
BRANCH  19  20
ATOM     20  C32 DMQ d         -12.382  14.510  28.125  0.00  0.00    -0.056 A 
ATOM     21  C37 DMQ d         -13.157  14.636  29.309  0.00  0.00     0.007 A 
ATOM     22  C36 DMQ d         -13.617  13.481  29.973  0.00  0.00     0.001 A 
ATOM     23  C35 DMQ d         -13.306  12.210  29.437  0.00  0.00     0.000 A 
ATOM     24  C34 DMQ d         -12.546  12.073  28.265  0.00  0.00     0.001 A 
ATOM     25  C33 DMQ d         -12.079  13.223  27.616  0.00  0.00     0.007 A 
ENDBRANCH  19  20
ENDBRANCH   4  19
BRANCH   8  26
ATOM     26  C7  DMQ d          -8.048  15.778  25.227  0.00  0.00     0.166 C 
BRANCH  26  27
ATOM     27  C70 DMQ d          -8.537  16.333  23.907  0.00  0.00    -0.038 A 
ATOM     28  C79 DMQ d          -9.835  16.024  23.431  0.00  0.00     0.009 A 
ATOM     29  C78 DMQ d         -10.240  16.461  22.152  0.00  0.00     0.003 A 
ATOM     30  C77 DMQ d          -9.331  17.201  21.349  0.00  0.00     0.029 A 
ATOM     31  C72 DMQ d          -8.042  17.516  21.825  0.00  0.00     0.026 A 
ATOM     32  C71 DMQ d          -7.651  17.089  23.107  0.00  0.00     0.037 A 
BRANCH  31  33
ATOM     33  N79 DMQ d          -7.137  18.247  20.994  0.00  0.00    -0.399 N 
ATOM     34  H32 DMQ d          -7.500  18.925  20.309  0.00  0.00     0.156 HD
ATOM     35  H33 DMQ d          -6.122  18.095  21.080  0.00  0.00     0.156 HD
ENDBRANCH  31  33
ENDBRANCH  26  27
ENDBRANCH   8  26
BRANCH   5  36
ATOM     36  O4  DMQ d         -11.962  18.426  28.457  0.00  0.00    -0.391 OA
ATOM     37  H5  DMQ d         -12.001  19.336  28.186  0.00  0.00     0.210 HD
ENDBRANCH   5  36
BRANCH   7  38
ATOM     38  C61 DMQ d          -7.561  18.417  27.354  0.00  0.00     0.066 C 
BRANCH  38  39
ATOM     39  C62 DMQ d          -6.218  18.334  26.631  0.00  0.00    -0.056 A 
ATOM     40  C67 DMQ d          -5.256  17.360  27.014  0.00  0.00     0.007 A 
ATOM     41  C66 DMQ d          -4.052  17.218  26.289  0.00  0.00     0.001 A 
ATOM     42  C65 DMQ d          -3.819  18.063  25.180  0.00  0.00     0.000 A 
ATOM     43  C64 DMQ d          -4.761  19.040  24.800  0.00  0.00     0.001 A 
ATOM     44  C63 DMQ d          -5.954  19.174  25.530  0.00  0.00     0.007 A 
ENDBRANCH  38  39
ENDBRANCH   7  38
BRANCH   6  45
ATOM     45  O5  DMQ d         -10.035  19.727  26.921  0.00  0.00    -0.391 OA
ATOM     46  H7  DMQ d          -9.535  19.976  27.689  0.00  0.00     0.210 HD
ENDBRANCH   6  45
TORSDOF 12
ENDMDL
