lig.mol2
  PyMOL3.1          3D                             0

 47 47  0  0  0  0  0  0  0  0999 V2000
  -30.2830    3.9950  -38.5900 N   0  0  0  0  0  0  0  0  0  0  0  0
  -28.9480    4.7640  -35.3080 N   0  0  0  0  0  0  0  0  0  0  0  0
  -30.1640   -1.0610  -36.2770 N   0  0  0  0  0  0  0  0  0  0  0  0
  -26.1180    6.8010  -34.0140 N   0  0  0  0  0  0  0  0  0  0  0  0
  -24.8170    6.4320  -33.5390 N   0  0  0  0  0  0  0  0  0  0  0  0
  -26.9300    3.9990  -32.3340 N   0  0  0  0  0  0  0  0  0  0  0  0
  -34.6940    1.3650  -41.1530 N   0  0  0  0  0  0  0  0  0  0  0  0
  -30.5680    3.2800  -41.8900 N   0  0  0  0  0  0  0  0  0  0  0  0
  -34.5770   -1.4230  -37.0540 N   0  0  0  0  0  0  0  0  0  0  0  0
  -29.5450    3.0950  -39.4870 C   0  0  0  0  0  0  0  0  0  0  0  0
  -29.6470    1.6450  -39.0290 C   0  0  0  0  0  0  0  0  0  0  0  0
  -28.5460    4.2420  -36.4980 C   0  0  0  0  0  0  0  0  0  0  0  0
  -30.7840   -0.4760  -37.0630 C   0  0  0  0  0  0  0  0  0  0  0  0
  -26.8380    5.5880  -34.4120 C   0  0  0  0  0  0  0  0  0  0  0  0
  -28.2340    5.9550  -34.8930 C   0  0  0  0  0  0  0  0  0  0  0  0
  -26.8890    4.7030  -33.2550 C   0  0  0  0  0  0  0  0  0  0  0  0
  -34.5960    1.1460  -39.8140 C   0  0  0  0  0  0  0  0  0  0  0  0
  -30.1150    3.1980  -40.8260 C   0  0  0  0  0  0  0  0  0  0  0  0
  -33.8250   -0.7260  -37.5980 C   0  0  0  0  0  0  0  0  0  0  0  0
  -30.1110    5.3060  -39.1850 O   0  0  0  0  0  0  0  0  0  0  0  0
  -29.5500    3.9930  -37.3340 O   0  0  0  0  0  0  0  0  0  0  0  0
  -31.4100    5.8540  -39.4770 O   0  0  0  0  0  0  0  0  0  0  0  0
  -30.3050    4.5930  -35.0130 O   0  0  0  0  0  0  0  0  0  0  0  0
  -27.3750    4.0450  -36.7950 O   0  0  0  0  0  0  0  0  0  0  0  0
  -30.4810    4.5040  -33.5830 O   0  0  0  0  0  0  0  0  0  0  0  0
  -33.5350    1.0880  -41.8860 O   0  0  0  0  0  0  0  0  0  0  0  0
  -35.5610    1.0600  -39.0650 O   0  0  0  0  0  0  0  0  0  0  0  0
  -33.8940    0.6650  -43.2180 O   0  0  0  0  0  0  0  0  0  0  0  0
  -32.0820    1.6940  -39.7040 N   0  0  0  0  0  0  0  0  0  0  0  0
  -31.0790    1.2090  -38.9330 N   0  0  0  0  0  0  0  0  0  0  0  0
  -33.1720    1.0560  -39.3210 C   0  0  0  0  0  0  0  0  0  0  0  0
  -32.8920    0.1390  -38.2720 C   0  0  0  0  0  0  0  0  0  0  0  0
  -31.5540    0.2510  -38.0390 C   0  0  0  0  0  0  0  0  0  0  0  0
  -24.1270    7.7110  -32.7490 S   0  0  0  0  0  0  0  0  0  0  0  0
  -28.4900    3.3860  -39.5590 H   0  0  0  0  0  0  0  0  0  0  0  0
  -29.1760    1.4960  -38.0520 H   0  0  0  0  0  0  0  0  0  0  0  0
  -29.1430    0.9890  -39.7460 H   0  0  0  0  0  0  0  0  0  0  0  0
  -31.8620    5.3400  -38.7870 H   0  0  0  0  0  0  0  0  0  0  0  0
  -30.9650    5.3440  -33.4890 H   0  0  0  0  0  0  0  0  0  0  0  0
  -26.6420    7.2720  -33.2730 H   0  0  0  0  0  0  0  0  0  0  0  0
  -26.3060    5.0790  -35.2250 H   0  0  0  0  0  0  0  0  0  0  0  0
  -28.8140    6.4360  -34.0980 H   0  0  0  0  0  0  0  0  0  0  0  0
  -28.1920    6.6380  -35.7480 H   0  0  0  0  0  0  0  0  0  0  0  0
  -24.2190    6.1480  -34.3240 H   0  0  0  0  0  0  0  0  0  0  0  0
  -24.7810    7.6100  -31.5820 H   0  0  0  0  0  0  0  0  0  0  0  0
  -35.5770    1.1880  -41.6130 H   0  0  0  0  0  0  0  0  0  0  0  0
  -33.5290    1.4440  -43.6730 H   0  0  0  0  0  0  0  0  0  0  0  0
  1 10  1  0  0  0  0
  1 21  1  0  0  0  0
  2 12  1  0  0  0  0
  2 15  1  0  0  0  0
  3 13  3  0  0  0  0
  4  5  1  0  0  0  0
  4 14  1  0  0  0  0
  4 40  1  0  0  0  0
  5 34  1  0  0  0  0
  5 44  1  0  0  0  0
  6 16  3  0  0  0  0
  7 17  1  0  0  0  0
  7 46  1  0  0  0  0
  8 18  3  0  0  0  0
  9 19  3  0  0  0  0
 10 11  1  0  0  0  0
 10 18  1  0  0  0  0
 10 35  1  0  0  0  0
 11 36  1  0  0  0  0
 11 37  1  0  0  0  0
 12 24  2  0  0  0  0
 14 15  1  0  0  0  0
 14 16  1  0  0  0  0
 14 41  1  0  0  0  0
 15 42  1  0  0  0  0
 15 43  1  0  0  0  0
 17 27  2  0  0  0  0
  1 20  1  0  0  0  0
 20 22  1  0  0  0  0
 12 21  1  0  0  0  0
 22 38  1  0  0  0  0
  2 23  1  0  0  0  0
 23 25  1  0  0  0  0
 25 39  1  0  0  0  0
  7 26  1  0  0  0  0
 26 28  1  0  0  0  0
 28 47  1  0  0  0  0
 29 30  4  0  0  0  0
 29 31  4  0  0  0  0
 11 30  1  0  0  0  0
 17 31  1  0  0  0  0
 31 32  4  0  0  0  0
 19 32  1  0  0  0  0
 32 33  4  0  0  0  0
 13 33  1  0  0  0  0
 30 33  4  0  0  0  0
 34 45  1  0  0  0  0
M  END
