@<TRIPOS>MOLECULE
lig.mol2
47 47 1 0 0
SMALL
NO_CHARGES


@<TRIPOS>ATOM
      1 N1        -32.0820    1.6940  -39.7040 N.ar      1 <0>    0.0000
      2 C7        -33.1720    1.0560  -39.3210 C.ar      1 <0>    0.0000
      3 C8        -32.8920    0.1390  -38.2720 C.ar      1 <0>    0.0000
      4 C9        -31.5540    0.2510  -38.0390 C.ar      1 <0>    0.0000
      5 N2        -31.0790    1.2090  -38.9330 N.ar      1 <0>    0.0000
      6 O         -30.1110    5.3060  -39.1850 O.3       1 <0>    0.0000
      7 N         -30.2830    3.9950  -38.5900 N.3       1 <0>    0.0000
      8 C         -29.5450    3.0950  -39.4870 C.3       1 <0>    0.0000
      9 C         -29.6470    1.6450  -39.0290 C.3       1 <0>    0.0000
     10 O         -29.5500    3.9930  -37.3340 O.3       1 <0>    0.0000
     11 O         -31.4100    5.8540  -39.4770 O.3       1 <0>    0.0000
     12 H         -28.4900    3.3860  -39.5590 H         1 <0>    0.0000
     13 H         -29.1760    1.4960  -38.0520 H         1 <0>    0.0000
     14 H         -29.1430    0.9890  -39.7460 H         1 <0>    0.0000
     15 H         -31.8620    5.3400  -38.7870 H         1 <0>    0.0000
     16 O         -30.3050    4.5930  -35.0130 O.3       1 <0>    0.0000
     17 N         -28.9480    4.7640  -35.3080 N.am      1 <0>    0.0000
     18 C         -28.5460    4.2420  -36.4980 C.2       1 <0>    0.0000
     19 O         -27.3750    4.0450  -36.7950 O.2       1 <0>    0.0000
     20 O         -30.4810    4.5040  -33.5830 O.3       1 <0>    0.0000
     21 H         -30.9650    5.3440  -33.4890 H         1 <0>    0.0000
     22 N         -30.1640   -1.0610  -36.2770 N.1       1 <0>    0.0000
     23 C         -30.7840   -0.4760  -37.0630 C.1       1 <0>    0.0000
     24 N         -26.1180    6.8010  -34.0140 N.3       1 <0>    0.0000
     25 C         -26.8380    5.5880  -34.4120 C.3       1 <0>    0.0000
     26 C         -28.2340    5.9550  -34.8930 C.3       1 <0>    0.0000
     27 N         -24.8170    6.4320  -33.5390 N.3       1 <0>    0.0000
     28 S         -24.1270    7.7110  -32.7490 S.3       1 <0>    0.0000
     29 H         -26.6420    7.2720  -33.2730 H         1 <0>    0.0000
     30 H         -26.3060    5.0790  -35.2250 H         1 <0>    0.0000
     31 H         -28.8140    6.4360  -34.0980 H         1 <0>    0.0000
     32 H         -28.1920    6.6380  -35.7480 H         1 <0>    0.0000
     33 H         -24.2190    6.1480  -34.3240 H         1 <0>    0.0000
     34 H         -24.7810    7.6100  -31.5820 H         1 <0>    0.0000
     35 N         -26.9300    3.9990  -32.3340 N.1       1 <0>    0.0000
     36 C         -26.8890    4.7030  -33.2550 C.1       1 <0>    0.0000
     37 O         -33.5350    1.0880  -41.8860 O.3       1 <0>    0.0000
     38 N         -34.6940    1.3650  -41.1530 N.am      1 <0>    0.0000
     39 C         -34.5960    1.1460  -39.8140 C.2       1 <0>    0.0000
     40 O         -35.5610    1.0600  -39.0650 O.2       1 <0>    0.0000
     41 O         -33.8940    0.6650  -43.2180 O.3       1 <0>    0.0000
     42 H         -35.5770    1.1880  -41.6130 H         1 <0>    0.0000
     43 H         -33.5290    1.4440  -43.6730 H         1 <0>    0.0000
     44 N         -30.5680    3.2800  -41.8900 N.1       1 <0>    0.0000
     45 C         -30.1150    3.1980  -40.8260 C.1       1 <0>    0.0000
     46 N         -34.5770   -1.4230  -37.0540 N.1       1 <0>    0.0000
     47 C         -33.8250   -0.7260  -37.5980 C.1       1 <0>    0.0000
@<TRIPOS>BOND
     1    1    5 ar
     2    1    2 ar
     3    2    3 ar
     4    2   39 1
     5    3    4 ar
     6    3   47 1
     7    4    5 ar
     8    4   23 1
     9    5    9 1
    10    6    7 1
    11    6   11 1
    12    7    8 1
    13    7   10 1
    14    8    9 1
    15    8   12 1
    16    8   45 1
    17    9   13 1
    18    9   14 1
    19   10   18 1
    20   11   15 1
    21   16   17 1
    22   16   20 1
    23   17   18 am
    24   17   26 1
    25   18   19 2
    26   20   21 1
    27   22   23 3
    28   24   25 1
    29   24   27 1
    30   24   29 1
    31   25   26 1
    32   25   30 1
    33   25   36 1
    34   26   31 1
    35   26   32 1
    36   27   28 1
    37   27   33 1
    38   28   34 1
    39   35   36 3
    40   37   38 1
    41   37   41 1
    42   38   39 am
    43   38   42 1
    44   39   40 2
    45   41   43 1
    46   44   45 3
    47   46   47 3
@<TRIPOS>SUBSTRUCTURE
     1 <0>     1 RESIDUE           4 A     <0>     0 ROOT
