
@<TRIPOS>MOLECULE
CDKMolecule
26 29
SMALL
NO CHARGES
@<TRIPOS>ATOM
1 C1 -0.0491 -0.5291 -2.6132 C.3
2 N2 -0.0197 -1.7083 -3.4907 N.3
3 C3 0.0045 -2.9621 -2.9218 C.2
4 C4 0.0347 -4.1329 -3.8183 C.2
5 N5 0.0379 -3.9645 -5.1173 N.2
6 C6 0.0138 -2.7278 -5.6754 C.ar
7 C7 -0.0158 -1.5774 -4.8671 C.ar
8 C8 -0.0405 -0.3205 -5.4575 C.ar
9 C9 -0.036 -0.2027 -6.8324 C.ar
10 C10 -0.0068 -1.3339 -7.6341 C.ar
11 C11 0.018 -2.5887 -7.0688 C.ar
12 H12 0.041 -3.4652 -7.6994 H
13 H13 -0.0032 -1.2295 -8.709 H
14 H14 -0.0549 0.7767 -7.287 H
15 H15 -0.0633 0.5653 -4.8402 H
16 N16 0.001 -3.1346 -1.6232 N.2
17 C17 -0.0257 -2.1322 -0.7182 C.2
18 C18 -0.0519 -0.809 -1.1268 C.2
19 H19 0.8204 0.0874 -2.8415 H
20 C20 -0.076 -0.0065 0.0038 C.2
21 N21 -0.0599 -0.7781 1.0641 N.2
22 N22 -0.0342 -2.1164 0.6507 N.pl3
23 C23 -0.1086 1.5001 0.0126 C.3
24 H24 0.9109 1.8856 0.0157 H
25 H25 -0.6294 1.8574 -0.8758 H
26 H26 -0.631 1.847 0.9041 H
@<TRIPOS>BOND
1 2 1 1
2 3 2 1
3 3 4 1
4 4 5 2
5 5 6 1
6 6 7 ar
7 7 2 1
8 8 7 ar
9 9 8 ar
10 10 9 ar
11 11 10 ar
12 6 11 ar
13 11 12 1
14 10 13 1
15 9 14 1
16 8 15 1
17 16 3 2
18 17 16 1
19 18 17 2
20 18 1 1
21 1 19 1
22 20 18 1
23 20 21 2
24 22 21 1
25 17 22 1
26 23 20 1
27 23 24 1
28 23 25 1
29 23 26 1
