
@<TRIPOS>MOLECULE
CDKMolecule
11 11
SMALL
NO CHARGES
@<TRIPOS>ATOM
1 C1 -1.283 0.2707 -2.9433 C.ar
2 C2 -1.1957 1.6404 -3.1054 C.ar
3 C3 -2.3275 2.3738 -3.4136 C.ar
4 C4 -3.5479 1.7372 -3.549 C.ar
5 C5 -3.6353 0.3678 -3.3811 C.ar
6 C6 -2.5032 -0.3652 -3.0783 C.ar
7 H7 -2.5718 -1.4351 -2.9475 H
8 H8 -4.5882 -0.1294 -3.4867 H
9 H9 -4.4323 2.3097 -3.7863 H
10 Br10 -2.2072 4.2468 -3.6439 Br
11 H11 -0.2432 2.1375 -2.9959 H
@<TRIPOS>BOND
1 1 2 ar
2 3 2 ar
3 4 3 ar
4 5 4 ar
5 6 5 ar
6 1 6 ar
7 6 7 1
8 5 8 1
9 4 9 1
10 3 10 1
11 2 11 1
