
@<TRIPOS>MOLECULE
CDKMolecule
12 12
SMALL
NO CHARGES
@<TRIPOS>ATOM
1 C1 0.4925 -7.7476 -3.7344 C.ar
2 C2 -0.0346 -6.5206 -4.1323 C.ar
3 N3 0.0603 -5.4089 -3.2873 N.3
4 H4 0.1439 -5.5339 -2.329 H
5 C5 -0.6486 -6.4025 -5.371 C.ar
6 C6 -0.7405 -7.5016 -6.2037 C.ar
7 C7 -0.2219 -8.7201 -5.8059 C.ar
8 C8 0.3914 -8.8455 -4.573 C.ar
9 H9 0.795 -9.7988 -4.2653 H
10 H10 -0.2964 -9.5764 -6.4598 H
11 H11 -1.219 -7.4087 -7.1675 H
12 H12 -1.0549 -5.4521 -5.6842 H
@<TRIPOS>BOND
1 2 1 ar
2 3 2 1
3 3 4 1
4 2 5 ar
5 5 6 ar
6 6 7 ar
7 7 8 ar
8 8 1 ar
9 8 9 1
10 7 10 1
11 6 11 1
12 5 12 1
