
@<TRIPOS>MOLECULE
CDKMolecule
11 11
SMALL
NO CHARGES
@<TRIPOS>ATOM
1 C1 2.6455 5.0749 3.1681 C.ar
2 C2 3.8087 4.9285 3.9256 C.ar
3 C3 3.9185 5.5642 5.145 C.ar
4 C4 2.8788 6.345 5.6177 C.ar
5 C5 1.723 6.4942 4.8718 C.ar
6 C6 1.6026 5.8686 3.6482 C.ar
7 H7 0.7017 5.9895 3.0649 H
8 H8 0.915 7.1051 5.2465 H
9 H9 2.9695 6.84 6.5733 H
10 H10 4.818 5.4518 5.7321 H
11 H11 4.621 4.3193 3.5577 H
@<TRIPOS>BOND
1 1 2 ar
2 3 2 ar
3 4 3 ar
4 5 4 ar
5 6 5 ar
6 1 6 ar
7 6 7 1
8 5 8 1
9 4 9 1
10 3 10 1
11 2 11 1
