
@<TRIPOS>MOLECULE
CDKMolecule
20 21
SMALL
NO CHARGES
@<TRIPOS>ATOM
1 C1 1.2581 3.0647 0.2579 C.3
2 C2 1.8986 1.7012 0.2161 C.2
3 C3 3.2772 1.5802 -0.0614 C.ar
4 N4 3.8851 0.3818 -0.1069 N.am
5 C5 3.1786 -0.7807 0.1166 C.ar
6 C6 1.8008 -0.7147 0.3967 C.ar
7 C7 1.1483 0.5951 0.4445 C.2
8 H8 0.0918 0.6781 0.6526 H
9 C9 1.079 -1.8914 0.6234 C.ar
10 C10 1.7176 -3.0978 0.5725 C.ar
11 C11 3.0764 -3.167 0.2961 C.ar
12 C12 3.8072 -2.0209 0.0691 C.ar
13 H13 4.8638 -2.0852 -0.1451 H
14 H14 3.5659 -4.1289 0.2589 H
15 H15 1.1603 -4.0061 0.7482 H
16 H16 0.0218 -1.846 0.839 H
17 H17 4.9621 0.3373 -0.3263 H
18 O18 3.933 2.5872 -0.2645 O.2
19 H19 0.1844 2.9724 0.0372 H
20 H20 1.7318 3.7155 -0.4918 H
@<TRIPOS>BOND
1 1 2 1
2 2 3 1
3 4 3 ar
4 5 4 1
5 6 5 ar
6 7 6 1
7 2 7 2
8 7 8 1
9 6 9 ar
10 9 10 ar
11 10 11 ar
12 11 12 ar
13 12 5 ar
14 12 13 1
15 11 14 1
16 10 15 1
17 9 16 1
18 4 17 1
19 3 18 2
20 1 19 1
21 1 20 1
