
@<TRIPOS>MOLECULE
CDKMolecule
11 11
SMALL
NO CHARGES
@<TRIPOS>ATOM
1 C1 -0.0156 -3.2383 1.4886 C.ar
2 C2 0.6657 -3.1924 2.6979 C.ar
3 C3 0.6773 -4.2987 3.5247 C.ar
4 C4 0.0214 -5.455 3.144 C.ar
5 C5 -0.6532 -5.5058 1.9379 C.ar
6 C6 -0.6737 -4.4009 1.1095 C.ar
7 H7 -1.2013 -4.441 0.168 H
8 H8 -1.1648 -6.4103 1.6436 H
9 H9 0.0357 -6.3202 3.7902 H
10 H10 1.2027 -4.2619 4.4676 H
11 H11 1.1819 -2.291 2.9937 H
@<TRIPOS>BOND
1 1 2 ar
2 3 2 ar
3 4 3 ar
4 5 4 ar
5 6 5 ar
6 1 6 ar
7 6 7 1
8 5 8 1
9 4 9 1
10 3 10 1
11 2 11 1
