#        Name: CDKMolecule

@<TRIPOS>MOLECULE
CDKMolecule
18 21
SMALL
NO CHARGES
@<TRIPOS>ATOM
1 C1 -0.0491 -0.5291 -2.6132 C.3
2 N2 -0.0197 -1.7083 -3.4907 N.3
3 C3 0.0045 -2.9621 -2.9218 C.2
4 C4 0.0347 -4.1329 -3.8183 C.2
5 N5 0.0379 -3.9645 -5.1173 N.2
6 C6 0.0138 -2.7278 -5.6754 C.ar
7 C7 -0.0158 -1.5774 -4.8671 C.ar
8 C8 -0.0405 -0.3205 -5.4575 C.ar
9 C9 -0.036 -0.2027 -6.8324 C.ar
10 C10 -0.0068 -1.3339 -7.6341 C.ar
11 C11 0.018 -2.5887 -7.0688 C.ar
12 N12 0.001 -3.1346 -1.6232 N.2
13 C13 -0.0257 -2.1322 -0.7182 C.2
14 C14 -0.0519 -0.809 -1.1268 C.2
15 C15 -0.076 -0.0065 0.0038 C.2
16 N16 -0.0599 -0.7781 1.0641 N.2
17 N17 -0.0342 -2.1164 0.6507 N.pl3
18 C18 -0.1086 1.5001 0.0126 C.3
@<TRIPOS>BOND
1 2 1 1
2 3 2 1
3 3 4 1
4 4 5 2
5 5 6 1
6 6 7 ar
7 7 2 1
8 8 7 ar
9 9 8 ar
10 10 9 ar
11 11 10 ar
12 6 11 ar
13 12 3 2
14 13 12 1
15 14 13 2
16 14 1 1
17 15 14 1
18 15 16 2
19 17 16 1
20 13 17 1
21 18 15 1
#        Name: CDKMolecule

@<TRIPOS>MOLECULE
CDKMolecule
2 1
SMALL
NO CHARGES
@<TRIPOS>ATOM
1 O1 2.0264 2.3893 4.129 O.3
2 C2 2.4662 1.2756 4.9089 C.3
@<TRIPOS>BOND
1 2 1 1
#        Name: CDKMolecule

@<TRIPOS>MOLECULE
CDKMolecule
7 7
SMALL
NO CHARGES
@<TRIPOS>ATOM
1 C1 -1.283 0.2707 -2.9433 C.ar
2 C2 -1.1957 1.6404 -3.1054 C.ar
3 C3 -2.3275 2.3738 -3.4136 C.ar
4 C4 -3.5479 1.7372 -3.549 C.ar
5 C5 -3.6353 0.3678 -3.3811 C.ar
6 C6 -2.5032 -0.3652 -3.0783 C.ar
7 Br7 -2.2072 4.2468 -3.6439 Br
@<TRIPOS>BOND
1 1 2 ar
2 3 2 ar
3 4 3 ar
4 5 4 ar
5 6 5 ar
6 1 6 ar
7 3 7 1
#        Name: CDKMolecule

@<TRIPOS>MOLECULE
CDKMolecule
2 1
SMALL
NO CHARGES
@<TRIPOS>ATOM
1 C1 0.4297 3.4124 2.6309 C.3
2 C2 0.8025 2.1606 3.4277 C.3
@<TRIPOS>BOND
1 2 1 1
#        Name: CDKMolecule

@<TRIPOS>MOLECULE
CDKMolecule
7 7
SMALL
NO CHARGES
@<TRIPOS>ATOM
1 C1 0.4925 -7.7476 -3.7344 C.ar
2 C2 -0.0346 -6.5206 -4.1323 C.ar
3 N3 0.0603 -5.4089 -3.2873 N.3
4 C4 -0.6486 -6.4025 -5.371 C.ar
5 C5 -0.7405 -7.5016 -6.2037 C.ar
6 C6 -0.2219 -8.7201 -5.8059 C.ar
7 C7 0.3914 -8.8455 -4.573 C.ar
@<TRIPOS>BOND
1 2 1 ar
2 3 2 1
3 2 4 ar
4 4 5 ar
5 5 6 ar
6 6 7 ar
7 7 1 ar
#        Name: CDKMolecule

@<TRIPOS>MOLECULE
CDKMolecule
3 2
SMALL
NO CHARGES
@<TRIPOS>ATOM
1 C1 2.521 4.3969 1.8601 C.ar
2 N2 1.4344 3.6464 1.5908 N.am
3 O3 3.3987 4.5164 1.0277 O.2
@<TRIPOS>BOND
1 2 1 ar
2 1 3 2
#        Name: CDKMolecule

@<TRIPOS>MOLECULE
CDKMolecule
6 5
SMALL
NO CHARGES
@<TRIPOS>ATOM
1 O1 1.0999 -7.8682 -2.5238 O.3
2 C2 1.6168 -9.156 -2.1827 C.3
3 H3 1.4237508249535176 -7.178434536868939 -1.8014121200847018 H
4 H4 2.2023550226589936 -9.061228511359104 -1.2682363974549813 H
5 H5 0.7777468386914382 -9.834761532383103 -2.0298190834176744 H
6 H6 2.244348673781867 -9.503916087314819 -3.003210242606494 H
@<TRIPOS>BOND
1 1 2 1
2 1 3 1
3 2 4 1
4 2 5 1
5 2 6 1
#        Name: CDKMolecule

@<TRIPOS>MOLECULE
CDKMolecule
6 6
SMALL
NO CHARGES
@<TRIPOS>ATOM
1 C1 2.6455 5.0749 3.1681 C.ar
2 C2 3.8087 4.9285 3.9256 C.ar
3 C3 3.9185 5.5642 5.145 C.ar
4 C4 2.8788 6.345 5.6177 C.ar
5 C5 1.723 6.4942 4.8718 C.ar
6 C6 1.6026 5.8686 3.6482 C.ar
@<TRIPOS>BOND
1 1 2 ar
2 3 2 ar
3 4 3 ar
4 5 4 ar
5 6 5 ar
6 1 6 ar
#        Name: CDKMolecule

@<TRIPOS>MOLECULE
CDKMolecule
12 12
SMALL
NO CHARGES
@<TRIPOS>ATOM
1 C1 -0.0156 -3.2383 1.4886 C.ar
2 C2 0.6657 -3.1924 2.6979 C.ar
3 C3 0.6773 -4.2987 3.5247 C.ar
4 C4 0.0214 -5.455 3.144 C.ar
5 C5 -0.6532 -5.5058 1.9379 C.ar
6 C6 -0.6737 -4.4009 1.1095 C.ar
7 H7 -0.033770769062270445 -2.3636750943173497 0.8383684277803017 H
8 H8 1.1921879058804836 -2.2865923769516296 2.9986042317444905 H
9 H9 1.2042913700039626 -4.259224991010939 4.478021467085821 H
10 H10 0.03617275257363579 -6.328330372735531 3.7960550788384504 H
11 H11 -1.1696074497532796 -6.418217198715586 1.6397084485983584 H
12 H12 -1.2072520883961584 -4.446266866343145 0.16009807436138945 H
@<TRIPOS>BOND
1 1 2 ar
2 3 2 ar
3 4 3 ar
4 5 4 ar
5 6 5 ar
6 1 6 ar
7 1 7 1
8 2 8 1
9 3 9 1
10 4 10 1
11 5 11 1
12 6 12 1
#        Name: CDKMolecule

@<TRIPOS>MOLECULE
CDKMolecule
12 13
SMALL
NO CHARGES
@<TRIPOS>ATOM
1 C1 1.2581 3.0647 0.2579 C.3
2 C2 1.8986 1.7012 0.2161 C.2
3 C3 3.2772 1.5802 -0.0614 C.ar
4 N4 3.8851 0.3818 -0.1069 N.am
5 C5 3.1786 -0.7807 0.1166 C.ar
6 C6 1.8008 -0.7147 0.3967 C.ar
7 C7 1.1483 0.5951 0.4445 C.2
8 C8 1.079 -1.8914 0.6234 C.ar
9 C9 1.7176 -3.0978 0.5725 C.ar
10 C10 3.0764 -3.167 0.2961 C.ar
11 C11 3.8072 -2.0209 0.0691 C.ar
12 O12 3.933 2.5872 -0.2645 O.2
@<TRIPOS>BOND
1 1 2 1
2 2 3 1
3 4 3 ar
4 5 4 1
5 6 5 ar
6 7 6 1
7 2 7 2
8 6 8 ar
9 8 9 ar
10 9 10 ar
11 10 11 ar
12 11 5 ar
13 3 12 2
