@<TRIPOS>MOLECULE
ZINC00154323
   32    33     0     0     0
SMALL
USER_CHARGES
6-(2-pyrrolidin-1-ylethyl)pyridine-3-carboxylic acid
@<TRIPOS>ATOM
      1 C1          2.4705    3.7316   -0.0015 C.ar      1 <0>        -0.0433
      2 C2          2.4691    5.1154    0.0055 C.ar      1 <0>        -0.1727
      3 C3          1.2624    5.7913    0.0202 C.ar      1 <0>         0.0837
      4 N1          0.1156    5.1383    0.0272 N.ar      1 <0>        -0.4975
      5 C4          0.0644    3.8228    0.0161 C.ar      1 <0>         0.1410
      6 C5          1.2381    3.0668    0.0067 C.ar      1 <0>        -0.1410
      7 C6          1.1808    1.5907   -0.0007 C.2       1 <0>         0.4862
      8 O1          2.2083    0.9430   -0.0140 O.co2     1 <0>        -0.6180
      9 C7          1.2570    7.2982    0.0278 C.3       1 <0>        -0.0771
     10 C8          0.4168    7.8112   -1.1435 C.3       1 <0>         0.0077
     11 C9          1.7957    9.8171   -1.0883 C.3       1 <0>        -0.0109
     12 C10         1.6316   11.2670   -1.6092 C.3       1 <0>        -0.1472
     13 C11         0.5622   11.1180   -2.7156 C.3       1 <0>        -0.1462
     14 C12        -0.1854    9.8144   -2.3793 C.3       1 <0>        -0.0094
     15 H1          3.3982    3.1787   -0.0133 H         1 <0>         0.1443
     16 H2          3.4005    5.6621   -0.0001 H         1 <0>         0.1297
     17 H3         -0.8937    3.3242    0.0184 H         1 <0>         0.1728
     18 H4          0.8302    7.6553    0.9650 H         1 <0>         0.0970
     19 H5          2.2786    7.6657   -0.0695 H         1 <0>         0.0945
     20 H6          0.8437    7.4541   -2.0807 H         1 <0>         0.1256
     21 H7         -0.6047    7.4438   -1.0462 H         1 <0>         0.1418
     22 H8          2.1737    9.8161   -0.0660 H         1 <0>         0.1373
     23 H9          2.4531    9.2451   -1.7432 H         1 <0>         0.1336
     24 H10         2.5690   11.6356   -2.0260 H         1 <0>         0.1130
     25 H11         1.2764   11.9242   -0.8154 H         1 <0>         0.0962
     26 H12         1.0377   11.0399   -3.6933 H         1 <0>         0.1009
     27 H13        -0.1245   11.9642   -2.6945 H         1 <0>         0.1020
     28 H14        -0.0615    9.0957   -3.1894 H         1 <0>         0.1301
     29 H15        -1.2438   10.0230   -2.2230 H         1 <0>         0.1320
     30 O2         -0.0110    0.9628    0.0073 O.co2     1 <0>        -0.7388
     31 N2          0.4176    9.3051   -1.1468 N.4       1 <0>        -0.3965
     32 H16        -0.1130    9.6437   -0.3356 H         1 <0>         0.4292
@<TRIPOS>BOND
     1    1    6 ar
     2    1    2 ar
     3    1   15 1
     4    2    3 ar
     5    2   16 1
     6    3    4 ar
     7    3    9 1
     8    4    5 ar
     9    5    6 ar
    10    5   17 1
    11    6    7 1
    12    7    8 2
    13    7   30 1
    14    9   10 1
    15    9   18 1
    16    9   19 1
    17   10   20 1
    18   10   21 1
    19   10   31 1
    20   11   12 1
    21   11   22 1
    22   11   23 1
    23   11   31 1
    24   12   13 1
    25   12   24 1
    26   12   25 1
    27   13   14 1
    28   13   26 1
    29   13   27 1
    30   14   28 1
    31   14   29 1
    32   14   31 1
    33   31   32 1
