REMARK  11 active torsions:
REMARK  status: ('A' for Active; 'I' for Inactive)
REMARK    1  A    between atoms: S1_1  and  C1_2 
REMARK    2  A    between atoms: C1_2  and  C2_3 
REMARK    3  A    between atoms: C1_2  and  C10_11 
REMARK    4  A    between atoms: C2_3  and  C3_4 
REMARK    5  A    between atoms: C3_4  and  C4_5 
REMARK    6  A    between atoms: C4_5  and  C5_6 
REMARK    7  A    between atoms: C10_11  and  C11_12 
REMARK    8  A    between atoms: C11_12  and  C13_14 
REMARK    9  A    between atoms: C13_14  and  C14_15 
REMARK   10  A    between atoms: C14_15  and  C15_17 
REMARK   11  A    between atoms: C15_17  and  C16_19 
ROOT
HETATM    1  C1  UNL     1       0.236  -0.701   0.045  1.00  0.00     0.051 C 
ENDROOT
BRANCH   1   2
HETATM    2  S1  UNL     1       0.597  -0.257  -1.715  1.00  0.00    -0.168 SA
HETATM    3  C17 UNL     1      -0.009  -1.745  -2.548  1.00  0.00     0.090 C 
ENDBRANCH   1   2
BRANCH   1   4
HETATM    4  C2  UNL     1      -0.981   0.142   0.582  1.00  0.00    -0.001 C 
HETATM    5  C9  UNL     1      -1.173  -0.057   2.098  1.00  0.00     0.011 C 
BRANCH   4   6
HETATM    6  C3  UNL     1      -2.324  -0.107  -0.197  1.00  0.00    -0.013 C 
HETATM    7  C8  UNL     1      -2.924  -1.490   0.085  1.00  0.00     0.010 C 
BRANCH   6   8
HETATM    8  C4  UNL     1      -3.352   1.020   0.084  1.00  0.00     0.008 C 
BRANCH   8   9
HETATM    9  C5  UNL     1      -4.636   0.992  -0.775  1.00  0.00    -0.022 C 
HETATM   10  C6  UNL     1      -5.564   2.134  -0.346  1.00  0.00     0.009 C 
HETATM   11  C7  UNL     1      -4.347   1.102  -2.272  1.00  0.00     0.009 C 
ENDBRANCH   8   9
ENDBRANCH   6   8
ENDBRANCH   4   6
ENDBRANCH   1   4
BRANCH   1  12
HETATM   12  C10 UNL     1       1.525  -0.474   0.885  1.00  0.00     0.020 C 
BRANCH  12  13
HETATM   13  C11 UNL     1       2.801  -1.250   0.474  1.00  0.00    -0.015 C 
HETATM   14  C12 UNL     1       2.552  -2.765   0.450  1.00  0.00     0.010 C 
BRANCH  13  15
HETATM   15  C13 UNL     1       3.985  -0.976   1.435  1.00  0.00     0.044 C 
BRANCH  15  16
HETATM   16  C14 UNL     1       4.446   0.473   1.626  1.00  0.00     0.209 C 
HETATM   17  F1  UNL     1       3.471   1.171   2.273  1.00  0.00    -0.246 F 
BRANCH  16  18
HETATM   18  C15 UNL     1       4.841   1.209   0.352  1.00  0.00     0.268 C 
HETATM   19  F2  UNL     1       3.774   1.298  -0.490  1.00  0.00    -0.241 F 
BRANCH  18  20
HETATM   20  C16 UNL     1       5.315   2.609   0.686  1.00  0.00     0.389 C 
HETATM   21  F3  UNL     1       5.807   3.204  -0.434  1.00  0.00    -0.211 F 
HETATM   22  F4  UNL     1       6.353   2.552   1.562  1.00  0.00    -0.211 F 
ENDBRANCH  18  20
ENDBRANCH  16  18
ENDBRANCH  15  16
ENDBRANCH  13  15
ENDBRANCH  12  13
ENDBRANCH   1  12
TORSDOF 11
