REMARK  10 active torsions:
REMARK  status: ('A' for Active; 'I' for Inactive)
REMARK    1  A    between atoms: C1_1  and  N1_2 
REMARK    2  A    between atoms: N1_2  and  C2_3 
REMARK    3  A    between atoms: N1_2  and  C5_6 
REMARK    4  A    between atoms: C5_6  and  C7_8 
REMARK    5  A    between atoms: C7_8  and  C8_9 
REMARK    6  A    between atoms: C8_9  and  C10_11 
REMARK    7  A    between atoms: C10_11  and  C11_12 
REMARK    8  A    between atoms: C11_12  and  C13_14 
REMARK    9  A    between atoms: C13_14  and  C14_15 
REMARK   10  A    between atoms: C14_15  and  C16_17 
ROOT
HETATM    1  C8  UNL     1      -0.709   0.908   0.720  1.00  0.00    -0.016 C 
HETATM    2  C9  UNL     1      -0.700   1.883   1.909  1.00  0.00     0.010 C 
ENDROOT
BRANCH   1   3
HETATM    3  C7  UNL     1      -1.719   1.429  -0.333  1.00  0.00     0.028 C 
BRANCH   3   4
HETATM    4  C5  UNL     1      -2.452   0.399  -1.240  1.00  0.00     0.075 C 
HETATM    5  C6  UNL     1      -1.552  -0.711  -1.793  1.00  0.00     0.032 C 
BRANCH   4   6
HETATM    6  N1  UNL     1      -3.715  -0.200  -0.738  1.00  0.00    -0.405 N 
BRANCH   6   7
HETATM    7  C1  UNL     1      -3.780  -0.569   0.678  1.00  0.00     0.113 C 
HETATM    8  C19 UNL     1      -3.194  -1.950   0.944  1.00  0.00     0.026 C 
ENDBRANCH   6   7
BRANCH   6   9
HETATM    9  C2  UNL     1      -4.926   0.468  -1.264  1.00  0.00     0.071 C 
HETATM   10  C3  UNL     1      -6.128  -0.490  -1.278  1.00  0.00     0.031 C 
HETATM   11  C4  UNL     1      -5.294   1.777  -0.559  1.00  0.00     0.031 C 
ENDBRANCH   6   9
ENDBRANCH   4   6
ENDBRANCH   3   4
ENDBRANCH   1   3
BRANCH   1  12
HETATM   12  C10 UNL     1       0.721   0.782   0.134  1.00  0.00     0.008 C 
BRANCH  12  13
HETATM   13  C11 UNL     1       1.508  -0.456   0.627  1.00  0.00    -0.018 C 
HETATM   14  C12 UNL     1       1.727  -0.510   2.138  1.00  0.00     0.010 C 
BRANCH  13  15
HETATM   15  C13 UNL     1       2.818  -0.687  -0.171  1.00  0.00     0.008 C 
BRANCH  15  16
HETATM   16  C14 UNL     1       4.132   0.008   0.283  1.00  0.00    -0.015 C 
HETATM   17  C15 UNL     1       3.982   1.533   0.341  1.00  0.00     0.010 C 
BRANCH  16  18
HETATM   18  C16 UNL     1       5.329  -0.397  -0.645  1.00  0.00    -0.019 C 
HETATM   19  C17 UNL     1       5.522  -1.918  -0.734  1.00  0.00     0.010 C 
HETATM   20  C18 UNL     1       6.660   0.223  -0.192  1.00  0.00     0.010 C 
ENDBRANCH  16  18
ENDBRANCH  15  16
ENDBRANCH  13  15
ENDBRANCH  12  13
ENDBRANCH   1  12
TORSDOF 10
