REMARK  10 active torsions:
REMARK  status: ('A' for Active; 'I' for Inactive)
REMARK    1  A    between atoms: C1_1  and  N1_2 
REMARK    2  A    between atoms: N1_2  and  C2_3 
REMARK    3  A    between atoms: N1_2  and  C8_9 
REMARK    4  A    between atoms: C2_3  and  C3_4 
REMARK    5  A    between atoms: C2_3  and  C5_6 
REMARK    6  A    between atoms: C8_9  and  C9_10 
REMARK    7  A    between atoms: C9_10  and  C10_12 
REMARK    8  A    between atoms: C10_12  and  C11_14 
REMARK    9  A    between atoms: C11_14  and  C12_16 
REMARK   10  A    between atoms: C12_16  and  C13_18 
ROOT
HETATM    1  C9  UNL     1       0.966  -1.638  -0.214  1.00  0.00     0.235 C 
HETATM    2  F1  UNL     1       0.375  -2.005   0.960  1.00  0.00    -0.244 F 
ENDROOT
BRANCH   1   3
HETATM    3  C8  UNL     1      -0.095  -1.047  -1.174  1.00  0.00     0.313 C 
BRANCH   3   4
HETATM    4  N1  UNL     1      -0.797   0.230  -0.882  1.00  0.00     0.096 N 
BRANCH   4   5
HETATM    5  C1  UNL     1      -0.025   1.432  -1.246  1.00  0.00     0.268 C 
HETATM    6  C14 UNL     1       0.499   1.462  -2.682  1.00  0.00     0.037 C 
ENDBRANCH   4   5
BRANCH   4   7
HETATM    7  C2  UNL     1      -1.449   0.273   0.463  1.00  0.00     0.226 C 
BRANCH   7   8
HETATM    8  C3  UNL     1      -1.998   1.669   0.890  1.00  0.00     0.031 C 
HETATM    9  C4  UNL     1      -3.132   2.248   0.056  1.00  0.00     0.007 C 
ENDBRANCH   7   8
BRANCH   7  10
HETATM   10  C5  UNL     1      -2.498  -0.885   0.653  1.00  0.00     0.011 C 
HETATM   11  C6  UNL     1      -3.574  -0.977  -0.436  1.00  0.00     0.011 C 
HETATM   12  C7  UNL     1      -3.160  -0.874   2.035  1.00  0.00     0.011 C 
ENDBRANCH   7  10
ENDBRANCH   4   7
ENDBRANCH   3   4
ENDBRANCH   1   3
BRANCH   1  13
HETATM   13  C10 UNL     1       2.144  -0.731   0.102  1.00  0.00     0.242 C 
HETATM   14  F2  UNL     1       2.710  -0.332  -1.068  1.00  0.00    -0.243 F 
BRANCH  13  15
HETATM   15  C11 UNL     1       3.183  -1.475   0.935  1.00  0.00     0.246 C 
HETATM   16  F3  UNL     1       3.710  -2.491   0.191  1.00  0.00    -0.243 F 
BRANCH  15  17
HETATM   17  C12 UNL     1       4.317  -0.626   1.490  1.00  0.00     0.271 C 
HETATM   18  F4  UNL     1       3.832   0.123   2.527  1.00  0.00    -0.240 F 
BRANCH  17  19
HETATM   19  C13 UNL     1       5.019   0.292   0.509  1.00  0.00     0.389 C 
HETATM   20  F5  UNL     1       5.495  -0.400  -0.552  1.00  0.00    -0.211 F 
HETATM   21  F6  UNL     1       4.176   1.241   0.036  1.00  0.00    -0.211 F 
ENDBRANCH  17  19
ENDBRANCH  15  17
ENDBRANCH  13  15
ENDBRANCH   1  13
TORSDOF 10
