REMARK  8 active torsions:
REMARK  status: ('A' for Active; 'I' for Inactive)
REMARK    1  A    between atoms: C1_1  and  N1_2 
REMARK    2  A    between atoms: C1_1  and  C10_12 
REMARK    3  A    between atoms: N1_2  and  C2_3 
REMARK    4  A    between atoms: N1_2  and  C4_5 
REMARK    5  A    between atoms: C4_5  and  C5_6 
REMARK    6  A    between atoms: C5_6  and  O1_7 
REMARK    7  A    between atoms: O1_7  and  C6_8 
REMARK    8  A    between atoms: C10_12  and  C11_13 
ROOT
HETATM    1  N1  UNL     1      -0.848  -1.173  -0.135  1.00  0.00     0.094 N 
ENDROOT
BRANCH   1   2
HETATM    2  C1  UNL     1      -1.398  -0.929   1.209  1.00  0.00     0.273 C 
BRANCH   2   3
HETATM    3  C10 UNL     1      -2.847  -0.404   1.238  1.00  0.00     0.034 C 
BRANCH   3   4
HETATM    4  C11 UNL     1      -3.127   0.973   0.601  1.00  0.00    -0.021 C 
HETATM    5  C12 UNL     1      -3.043   0.970  -0.924  1.00  0.00     0.009 C 
HETATM    6  C13 UNL     1      -2.252   2.082   1.184  1.00  0.00     0.009 C 
ENDBRANCH   3   4
ENDBRANCH   2   3
ENDBRANCH   1   2
BRANCH   1   7
HETATM    7  C2  UNL     1      -1.428  -2.385  -0.743  1.00  0.00     0.268 C 
HETATM    8  C3  UNL     1      -1.257  -2.431  -2.260  1.00  0.00     0.037 C 
ENDBRANCH   1   7
BRANCH   1   9
HETATM    9  C4  UNL     1       0.641  -1.177  -0.166  1.00  0.00     0.242 C 
HETATM   10  C9  UNL     1       1.309  -2.071   0.892  1.00  0.00     0.045 C 
BRANCH   9  11
HETATM   11  C5  UNL     1       1.199   0.268  -0.090  1.00  0.00     0.203 C 
BRANCH  11  12
HETATM   12  O1  UNL     1       2.605   0.257  -0.366  1.00  0.00    -0.385 OA
BRANCH  12  13
HETATM   13  C6  UNL     1       3.186   1.562  -0.417  1.00  0.00     0.113 C 
HETATM   14  C7  UNL     1       3.424   2.107   0.988  1.00  0.00     0.039 C 
HETATM   15  C8  UNL     1       4.511   1.429  -1.162  1.00  0.00     0.039 C 
ENDBRANCH  12  13
ENDBRANCH  11  12
ENDBRANCH   9  11
ENDBRANCH   1   9
TORSDOF 8
