REMARK  8 active torsions:
REMARK  status: ('A' for Active; 'I' for Inactive)
REMARK    1  A    between atoms: C1_1  and  N1_2 
REMARK    2  A    between atoms: C1_1  and  C11_12 
REMARK    3  A    between atoms: N1_2  and  C2_3 
REMARK    4  A    between atoms: C2_3  and  C3_4 
REMARK    5  A    between atoms: C3_4  and  C4_5 
REMARK    6  A    between atoms: C4_5  and  C5_6 
REMARK    7  A    between atoms: C11_12  and  C12_13 
REMARK    8  A    between atoms: C12_13  and  C13_15 
ROOT
HETATM    1  N1  UNL     1       0.800  -0.692  -0.773  1.00  0.00    -0.412 N 
HETATM    2  C10 UNL     1       1.389   0.183  -1.770  1.00  0.00     0.143 C 
ENDROOT
BRANCH   1   3
HETATM    3  C1  UNL     1       1.763  -1.398   0.081  1.00  0.00     0.119 C 
BRANCH   3   4
HETATM    4  C11 UNL     1       2.522  -0.552   1.114  1.00  0.00     0.059 C 
BRANCH   4   5
HETATM    5  C12 UNL     1       3.847  -0.007   0.590  1.00  0.00     0.205 C 
HETATM    6  F1  UNL     1       4.658  -1.066   0.298  1.00  0.00    -0.246 F 
BRANCH   5   7
HETATM    7  C13 UNL     1       4.538   0.884   1.623  1.00  0.00     0.200 C 
HETATM    8  F2  UNL     1       4.682   0.202   2.795  1.00  0.00    -0.247 F 
HETATM    9  C14 UNL     1       5.916   1.330   1.168  1.00  0.00     0.048 C 
ENDBRANCH   5   7
ENDBRANCH   4   5
ENDBRANCH   3   4
ENDBRANCH   1   3
BRANCH   1  10
HETATM   10  C2  UNL     1      -0.412  -0.220  -0.070  1.00  0.00     0.078 C 
HETATM   11  C9  UNL     1      -0.621   1.299  -0.102  1.00  0.00     0.032 C 
BRANCH  10  12
HETATM   12  C3  UNL     1      -1.645  -1.051  -0.568  1.00  0.00     0.004 C 
HETATM   13  C8  UNL     1      -1.918  -0.931  -2.070  1.00  0.00     0.012 C 
BRANCH  12  14
HETATM   14  C4  UNL     1      -2.914  -0.844   0.303  1.00  0.00     0.010 C 
BRANCH  14  15
HETATM   15  C5  UNL     1      -3.851   0.335  -0.047  1.00  0.00    -0.022 C 
HETATM   16  C6  UNL     1      -5.006  -0.097  -0.956  1.00  0.00     0.009 C 
HETATM   17  C7  UNL     1      -4.437   0.937   1.235  1.00  0.00     0.009 C 
ENDBRANCH  14  15
ENDBRANCH  12  14
ENDBRANCH  10  12
ENDBRANCH   1  10
TORSDOF 8
