REMARK  8 active torsions:
REMARK  status: ('A' for Active; 'I' for Inactive)
REMARK    1  A    between atoms: S1_1  and  C1_2 
REMARK    2  A    between atoms: C1_2  and  C2_3 
REMARK    3  A    between atoms: C1_2  and  C8_9 
REMARK    4  A    between atoms: C2_3  and  C3_4 
REMARK    5  A    between atoms: C3_4  and  C4_5 
REMARK    6  A    between atoms: C8_9  and  C10_11 
REMARK    7  A    between atoms: C10_11  and  C11_12 
REMARK    8  A    between atoms: C11_12  and  C13_14 
ROOT
HETATM    1  C1  UNL     1      -0.543  -0.971   0.466  1.00  0.00     0.054 C 
ENDROOT
BRANCH   1   2
HETATM    2  S1  UNL     1      -0.413  -0.529   2.265  1.00  0.00    -0.168 SA
HETATM    3  C16 UNL     1      -0.087  -2.169   2.960  1.00  0.00     0.090 C 
ENDBRANCH   1   2
BRANCH   1   4
HETATM    4  C2  UNL     1      -2.036  -0.956  -0.006  1.00  0.00    -0.004 C 
HETATM    5  C7  UNL     1      -2.870  -2.022   0.728  1.00  0.00     0.011 C 
BRANCH   4   6
HETATM    6  C3  UNL     1      -2.702   0.443   0.098  1.00  0.00     0.009 C 
BRANCH   6   7
HETATM    7  C4  UNL     1      -4.098   0.571  -0.551  1.00  0.00    -0.022 C 
HETATM    8  C5  UNL     1      -4.041   0.418  -2.075  1.00  0.00     0.009 C 
HETATM    9  C6  UNL     1      -4.712   1.931  -0.190  1.00  0.00     0.009 C 
ENDBRANCH   6   7
ENDBRANCH   4   6
ENDBRANCH   1   4
BRANCH   1  10
HETATM   10  C8  UNL     1       0.438  -0.073  -0.372  1.00  0.00    -0.004 C 
HETATM   11  C9  UNL     1       0.232  -0.270  -1.882  1.00  0.00     0.011 C 
BRANCH  10  12
HETATM   12  C10 UNL     1       1.921  -0.356   0.018  1.00  0.00     0.010 C 
BRANCH  12  13
HETATM   13  C11 UNL     1       2.975   0.518  -0.716  1.00  0.00    -0.015 C 
HETATM   14  C12 UNL     1       3.741  -0.335  -1.746  1.00  0.00     0.010 C 
BRANCH  13  15
HETATM   15  C13 UNL     1       3.968   1.246   0.235  1.00  0.00    -0.019 C 
HETATM   16  C14 UNL     1       4.765   0.318   1.154  1.00  0.00     0.010 C 
HETATM   17  C15 UNL     1       3.256   2.322   1.057  1.00  0.00     0.010 C 
ENDBRANCH  13  15
ENDBRANCH  12  13
ENDBRANCH  10  12
ENDBRANCH   1  10
TORSDOF 8
