REMARK  7 active torsions:
REMARK  status: ('A' for Active; 'I' for Inactive)
REMARK    1  A    between atoms: S1_1  and  C1_2 
REMARK    2  A    between atoms: S1_1  and  C10_11 
REMARK    3  A    between atoms: C1_2  and  C2_3 
REMARK    4  A    between atoms: C1_2  and  C7_8 
REMARK    5  A    between atoms: C2_3  and  C3_4 
REMARK    6  A    between atoms: C10_11  and  C11_12 
REMARK    7  A    between atoms: C11_12  and  C12_14 
ROOT
HETATM    1  C1  UNL     1      -0.714   0.569  -0.445  1.00  0.00     0.054 C 
ENDROOT
BRANCH   1   2
HETATM    2  S1  UNL     1       0.834   0.198   0.508  1.00  0.00    -0.161 SA
BRANCH   2   3
HETATM    3  C10 UNL     1       2.077   0.428  -0.817  1.00  0.00     0.114 C 
BRANCH   3   4
HETATM    4  C11 UNL     1       3.517   0.172  -0.367  1.00  0.00     0.212 C 
HETATM    5  F1  UNL     1       3.844   1.046   0.627  1.00  0.00    -0.246 F 
BRANCH   4   6
HETATM    6  C12 UNL     1       3.776  -1.258   0.097  1.00  0.00     0.200 C 
HETATM    7  F2  UNL     1       3.482  -2.111  -0.927  1.00  0.00    -0.247 F 
HETATM    8  C13 UNL     1       5.233  -1.472   0.474  1.00  0.00     0.048 C 
ENDBRANCH   4   6
ENDBRANCH   3   4
ENDBRANCH   2   3
ENDBRANCH   1   2
BRANCH   1   9
HETATM    9  C2  UNL     1      -1.642  -0.691  -0.607  1.00  0.00    -0.001 C 
HETATM   10  C6  UNL     1      -0.871  -1.854  -1.272  1.00  0.00     0.011 C 
BRANCH   9  11
HETATM   11  C3  UNL     1      -2.450  -1.251   0.612  1.00  0.00    -0.018 C 
HETATM   12  C4  UNL     1      -3.747  -0.486   0.897  1.00  0.00     0.010 C 
HETATM   13  C5  UNL     1      -1.667  -1.432   1.911  1.00  0.00     0.010 C 
ENDBRANCH   9  11
ENDBRANCH   1   9
BRANCH   1  14
HETATM   14  C7  UNL     1      -1.402   1.869   0.070  1.00  0.00    -0.009 C 
HETATM   15  C8  UNL     1      -0.441   3.067   0.192  1.00  0.00     0.011 C 
HETATM   16  C9  UNL     1      -2.546   2.306  -0.860  1.00  0.00     0.011 C 
ENDBRANCH   1  14
TORSDOF 7
