REMARK  7 active torsions:
REMARK  status: ('A' for Active; 'I' for Inactive)
REMARK    1  A    between atoms: C1_1  and  N1_2 
REMARK    2  A    between atoms: C1_1  and  C6_8 
REMARK    3  A    between atoms: N1_2  and  C2_3 
REMARK    4  A    between atoms: N1_2  and  C3_5 
REMARK    5  A    between atoms: C2_3  and  O1_4 
REMARK    6  A    between atoms: C6_8  and  C7_9 
REMARK    7  A    between atoms: C7_9  and  C8_11 
ROOT
HETATM    1  C1  UNL     1       0.156   0.989  -0.847  1.00  0.00     0.278 C 
ENDROOT
BRANCH   1   2
HETATM    2  N1  UNL     1      -0.657  -0.032  -0.161  1.00  0.00     0.115 N 
BRANCH   2   3
HETATM    3  C2  UNL     1      -1.547  -0.712  -1.100  1.00  0.00     0.438 C 
BRANCH   3   4
HETATM    4  O1  UNL     1      -2.206  -1.806  -0.493  1.00  0.00    -0.373 OA
HETATM    5  H5  UNL     1      -2.713  -2.247  -1.192  1.00  0.00     0.211 HD
ENDBRANCH   3   4
ENDBRANCH   2   3
BRANCH   2   6
HETATM    6  C3  UNL     1      -1.340   0.547   1.023  1.00  0.00     0.217 C 
HETATM    7  C4  UNL     1      -1.647  -0.520   2.083  1.00  0.00     0.042 C 
HETATM    8  C5  UNL     1      -2.592   1.382   0.728  1.00  0.00     0.042 C 
ENDBRANCH   2   6
ENDBRANCH   1   2
BRANCH   1   9
HETATM    9  C6  UNL     1       1.202   0.416  -1.804  1.00  0.00     0.070 C 
BRANCH   9  10
HETATM   10  C7  UNL     1       2.087  -0.704  -1.255  1.00  0.00     0.205 C 
HETATM   11  F1  UNL     1       2.860  -1.114  -2.318  1.00  0.00    -0.246 F 
BRANCH  10  12
HETATM   12  C8  UNL     1       3.050  -0.325  -0.128  1.00  0.00     0.200 C 
HETATM   13  F2  UNL     1       3.584   0.906  -0.375  1.00  0.00    -0.247 F 
HETATM   14  C9  UNL     1       2.457  -0.317   1.268  1.00  0.00     0.048 C 
ENDBRANCH  10  12
ENDBRANCH   9  10
ENDBRANCH   1   9
TORSDOF 7
