@<TRIPOS>MOLECULE
PVUJMSOOCQMXPE-VQJIJPHLSA-O
   47    47     1     1     1
SMALL
USER_CHARGES


@<TRIPOS>ATOM
      1 N1        -32.0820    1.6940  -39.7040 N.ar       0 <0>       -0.066
      2 C7        -33.1720    1.0560  -39.3210 C.ar       0 <0>       -0.037
      3 C8        -32.8920    0.1390  -38.2720 C.ar       0 <0>       -0.045
      4 C9        -31.5540    0.2510  -38.0390 C.ar       0 <0>       -0.121
      5 N2        -31.0790    1.2090  -38.9330 N.ar       0 <0>       -0.121
      6 H7        -34.1511    1.2109  -39.7497 H          0 <0>        0.000
      7 O         -30.1110    5.3055  -39.1851 O.3        0 <0>       -0.205
      8 N         -30.2829    3.9954  -38.5895 N.4        0 <0>       -0.261
      9 C         -29.5454    3.0945  -39.4873 C.3        0 <0>       -0.345
     10 C         -29.6471    1.6453  -39.0288 C.3        0 <0>       -0.243
     11 O         -29.5499    3.9930  -37.3340 O.3        0 <0>       -0.370
     12 O         -31.4104    5.8543  -39.4769 O.3        0 <0>       -0.225
     13 H         -29.1759    1.4957  -38.0521 H          0 <0>        0.000
     14 H         -31.8620    5.3398  -38.7875 H          0 <0>        0.000
     15 O         -30.3045    4.5932  -35.0130 O.3        0 <0>       -0.160
     16 N         -28.9482    4.7637  -35.3082 N.am       0 <0>       -0.409
     17 C         -28.5460    4.2424  -36.4980 C.2        0 <0>       -0.564
     18 O         -27.3748    4.0454  -36.7952 O.2        0 <0>       -0.432
     19 O         -30.4814    4.5042  -33.5833 O.3        0 <0>       -0.004
     20 H         -30.9655    5.3436  -33.4891 H          0 <0>        0.000
     21 N         -30.1637   -1.0615  -36.2770 N.1        0 <0>       -0.247
     22 C         -30.7840   -0.4759  -37.0631 C.1        0 <0>       -0.213
     23 N         -26.4613    6.6760  -33.3096 N.3        0 <0>       -0.592
     24 C         -27.1266    5.4941  -33.8649 C.3        0 <0>       -0.630
     25 C         -28.2947    5.9259  -34.7384 C.3        0 <0>       -0.582
     26 N         -25.3820    6.2482  -32.4693 N.3        0 <0>       -0.586
     27 S         -24.8521    7.5172  -31.5502 S.3        0 <0>       -0.496
     28 H         -27.1377    7.2154  -32.7662 H          0 <0>        0.000
     29 H         -27.4994    4.8460  -33.0623 H          0 <0>        0.000
     30 H         -26.4242    4.9126  -34.4740 H          0 <0>        0.000
     31 H         -29.0400    6.4813  -34.1589 H          0 <0>        0.000
     32 H         -24.6082    5.8884  -33.0389 H          0 <0>        0.000
     33 H         -25.8193    7.5165  -30.6198 H          0 <0>        0.000
     34 O         -27.2780    2.5102  -38.9351 O.3        0 <0>       -0.252
     35 C         -28.0747    3.5514  -39.4856 C.3        0 <0>       -0.125
     36 O         -25.9127    3.0121  -38.9667 O.3        0 <0>       -0.046
     37 H         -27.7648    3.7569  -40.5143 H          0 <0>        0.000
     38 H         -27.9838    4.4554  -38.8765 H          0 <0>        0.000
     39 H         -25.5026    2.2205  -38.5742 H          0 <0>        0.000
     40 N         -28.4429    0.0769  -40.7446 N.1        0 <0>        0.123
     41 C         -28.9764    0.7719  -39.9843 C.1        0 <0>       -0.023
     42 N         -27.4898    7.4460  -36.7121 N.1        0 <0>       -0.133
     43 C         -27.8465    6.7725  -35.8376 C.1        0 <0>       -0.323
     44 N         -34.5766   -1.4228  -37.0543 N.1        0 <0>       -0.016
     45 C         -33.8250   -0.7260  -37.5976 C.1        0 <0>       -0.027
     46 N         -30.4939    3.4734  -41.8979 N.1        0 <0>       -0.179
     47 C         -30.0736    3.3055  -40.8298 C.1        0 <0>       -0.244
@<TRIPOS>BOND
     1    2    1 ar 
     2    2    3 ar 
     3    3    4 ar 
     4    4    5 ar 
     5    1    5 ar 
     6    6    2 1  
     7    7    8 1  
     8    8    9 1  
     9    9   10 1  
    10    8   11 1  
    11    7   12 1  
    12   10   13 1  
    13   12   14 1  
    14    5   10 1  
    15   15   16 1  
    16   16   17 am 
    17   17   18 2  
    18   15   19 1  
    19   19   20 1  
    20   11   17 1  
    21   21   22 3  
    22    4   22 1  
    23   23   24 1  
    24   24   25 1  
    25   23   26 1  
    26   26   27 1  
    27   23   28 1  
    28   24   29 1  
    29   24   30 1  
    30   25   31 1  
    31   26   32 1  
    32   27   33 1  
    33   16   25 1  
    34   34   35 1  
    35   34   36 1  
    36   35   37 1  
    37   35   38 1  
    38   36   39 1  
    39    9   35 1  
    40   40   41 3  
    41   10   41 1  
    42   42   43 3  
    43   25   43 1  
    44   44   45 3  
    45    3   45 1  
    46   46   47 3  
    47    9   47 1  
