@<TRIPOS>MOLECULE
KGRYIBGCRGTGGF-HMDOHUEFSA-O
   53    53     1     1     1
SMALL
USER_CHARGES


@<TRIPOS>ATOM
      1 N1        -32.0820    1.6940  -39.7040 N.ar       0 <0>       -0.066
      2 C7        -33.1720    1.0560  -39.3210 C.ar       0 <0>       -0.037
      3 C8        -32.8920    0.1390  -38.2720 C.ar       0 <0>       -0.045
      4 C9        -31.5540    0.2510  -38.0390 C.ar       0 <0>       -0.121
      5 N2        -31.0790    1.2090  -38.9330 N.ar       0 <0>       -0.121
      6 O         -30.1110    5.3055  -39.1851 O.3        0 <0>       -0.205
      7 N         -30.2829    3.9954  -38.5895 N.4        0 <0>       -0.261
      8 C         -29.5454    3.0945  -39.4873 C.3        0 <0>       -0.345
      9 C         -29.6471    1.6453  -39.0288 C.3        0 <0>       -0.243
     10 O         -29.5499    3.9930  -37.3340 O.3        0 <0>       -0.370
     11 O         -31.4104    5.8543  -39.4769 O.3        0 <0>       -0.225
     12 H         -28.4900    3.3858  -39.5587 H          0 <0>        0.000
     13 H         -29.1759    1.4957  -38.0521 H          0 <0>        0.000
     14 H         -31.8620    5.3398  -38.7875 H          0 <0>        0.000
     15 O         -30.3045    4.5932  -35.0130 O.3        0 <0>       -0.160
     16 N         -28.9482    4.7637  -35.3082 N.am       0 <0>       -0.409
     17 C         -28.5460    4.2424  -36.4980 C.2        0 <0>       -0.564
     18 O         -27.3748    4.0454  -36.7952 O.2        0 <0>       -0.432
     19 O         -30.4814    4.5042  -33.5833 O.3        0 <0>       -0.004
     20 H         -30.9655    5.3436  -33.4891 H          0 <0>        0.000
     21 N         -30.1637   -1.0615  -36.2770 N.1        0 <0>       -0.247
     22 C         -30.7840   -0.4759  -37.0631 C.1        0 <0>       -0.213
     23 N         -25.9278    6.3250  -33.7996 N.3        0 <0>       -0.561
     24 C         -26.8366    5.2444  -34.1924 C.3        0 <0>       -0.585
     25 C         -28.0516    5.8270  -34.8984 C.3        0 <0>       -0.615
     26 N         -24.8042    5.7591  -33.1132 N.3        0 <0>       -0.530
     27 S         -23.9583    6.9547  -32.3447 S.3        0 <0>       -0.764
     28 H         -26.4252    6.9729  -33.1858 H          0 <0>        0.000
     29 H         -27.1695    4.6789  -33.3135 H          0 <0>        0.000
     30 H         -26.3303    4.5495  -34.8731 H          0 <0>        0.000
     31 H         -27.7594    6.3854  -35.7941 H          0 <0>        0.000
     32 H         -24.1898    5.2734  -33.7760 H          0 <0>        0.000
     33 H         -24.7576    7.1217  -31.2798 H          0 <0>        0.000
     34 N         -34.5766   -1.4228  -37.0543 N.1        0 <0>       -0.016
     35 C         -33.8250   -0.7260  -37.5976 C.1        0 <0>       -0.027
     36 N         -28.4429    0.0769  -40.7446 N.1        0 <0>        0.123
     37 C         -28.9764    0.7719  -39.9843 C.1        0 <0>       -0.023
     38 N         -29.2626    7.4049  -33.1961 N.1        0 <0>       -0.306
     39 C         -28.7260    6.7058  -33.9504 C.1        0 <0>       -0.464
     40 N         -34.6893    0.6659  -41.2165 N.3        0 <0>       -0.006
     41 C         -34.3701   -0.7348  -41.2452 C.3        0 <0>       -0.007
     42 N         -34.5865   -1.1371  -42.6081 N.3        0 <0>       -0.004
     43 C         -34.5861    1.2076  -39.8716 C.3        0 <0>       -0.013
     44 H         -35.6262    0.8080  -41.5783 H          0 <0>        0.000
     45 H         -35.0127   -1.3174  -40.5761 H          0 <0>        0.000
     46 H         -33.3250   -0.9085  -40.9697 H          0 <0>        0.000
     47 H         -35.5687   -1.0367  -42.8400 H          0 <0>        0.000
     48 H         -34.3613   -2.1235  -42.7066 H          0 <0>        0.000
     49 H         -35.2901    0.7230  -39.1873 H          0 <0>        0.000
     50 N         -30.5682    3.2797  -41.8902 N.1        0 <0>       -0.163
     51 C         -30.1150    3.1976  -40.8255 C.1        0 <0>       -0.243
     52 N         -35.1397    3.7663  -39.8965 N.1        0 <0>       -0.014
     53 C         -34.8944    2.6326  -39.8855 C.1        0 <0>       -0.015
@<TRIPOS>BOND
     1    2    1 ar 
     2    2    3 ar 
     3    3    4 ar 
     4    4    5 ar 
     5    1    5 ar 
     6    6    7 1  
     7    7    8 1  
     8    8    9 1  
     9    7   10 1  
    10    6   11 1  
    11    8   12 1  
    12    9   13 1  
    13   11   14 1  
    14    5    9 1  
    15   15   16 1  
    16   16   17 am 
    17   17   18 2  
    18   15   19 1  
    19   19   20 1  
    20   10   17 1  
    21   21   22 3  
    22    4   22 1  
    23   23   24 1  
    24   24   25 1  
    25   23   26 1  
    26   26   27 1  
    27   23   28 1  
    28   24   29 1  
    29   24   30 1  
    30   25   31 1  
    31   26   32 1  
    32   27   33 1  
    33   16   25 1  
    34   34   35 3  
    35    3   35 1  
    36   36   37 3  
    37    9   37 1  
    38   38   39 3  
    39   25   39 1  
    40   40   41 1  
    41   41   42 1  
    42   40   43 1  
    43   40   44 1  
    44   41   45 1  
    45   41   46 1  
    46   42   47 1  
    47   42   48 1  
    48   43   49 1  
    49    2   43 1  
    50   50   51 3  
    51    8   51 1  
    52   52   53 3  
    53   43   53 1  
