@<TRIPOS>MOLECULE
JBNCZIDAYJGNPO-IZUQBHJASA-O
   50    50     1     1     1
SMALL
USER_CHARGES


@<TRIPOS>ATOM
      1 N1        -32.0820    1.6940  -39.7040 N.ar       0 <0>       -0.066
      2 C7        -33.1720    1.0560  -39.3210 C.ar       0 <0>       -0.037
      3 C8        -32.8920    0.1390  -38.2720 C.ar       0 <0>       -0.045
      4 C9        -31.5540    0.2510  -38.0390 C.ar       0 <0>       -0.121
      5 N2        -31.0790    1.2090  -38.9330 N.ar       0 <0>       -0.121
      6 H7        -34.1511    1.2109  -39.7497 H          0 <0>        0.000
      7 O         -30.1110    5.3055  -39.1851 O.3        0 <0>       -0.205
      8 N         -30.2829    3.9954  -38.5895 N.4        0 <0>       -0.261
      9 C         -29.5454    3.0945  -39.4873 C.3        0 <0>       -0.345
     10 C         -29.6471    1.6453  -39.0288 C.3        0 <0>       -0.243
     11 O         -29.5499    3.9930  -37.3340 O.3        0 <0>       -0.370
     12 O         -31.4104    5.8543  -39.4769 O.3        0 <0>       -0.225
     13 H         -28.4900    3.3858  -39.5587 H          0 <0>        0.000
     14 H         -29.1759    1.4957  -38.0521 H          0 <0>        0.000
     15 H         -29.1435    0.9894  -39.7463 H          0 <0>        0.000
     16 H         -31.8620    5.3398  -38.7875 H          0 <0>        0.000
     17 O         -30.3045    4.5932  -35.0130 O.3        0 <0>       -0.160
     18 N         -28.9482    4.7637  -35.3082 N.am       0 <0>       -0.409
     19 C         -28.5460    4.2424  -36.4980 C.2        0 <0>       -0.564
     20 O         -27.3748    4.0454  -36.7952 O.2        0 <0>       -0.432
     21 O         -30.4814    4.5042  -33.5833 O.3        0 <0>       -0.004
     22 H         -30.9655    5.3436  -33.4891 H          0 <0>        0.000
     23 N         -30.1637   -1.0615  -36.2770 N.1        0 <0>       -0.247
     24 C         -30.7840   -0.4759  -37.0631 C.1        0 <0>       -0.213
     25 N         -26.1180    6.8008  -34.0135 N.3        0 <0>       -0.556
     26 C         -26.8380    5.5883  -34.4125 C.3        0 <0>       -0.603
     27 C         -28.2340    5.9553  -34.8930 C.3        0 <0>       -0.580
     28 N         -24.8168    6.4321  -33.5393 N.3        0 <0>       -0.587
     29 S         -24.1266    7.7108  -32.7491 S.3        0 <0>       -0.537
     30 H         -26.6417    7.2718  -33.2735 H          0 <0>        0.000
     31 H         -26.3058    5.0791  -35.2249 H          0 <0>        0.000
     32 H         -28.8141    6.4360  -34.0979 H          0 <0>        0.000
     33 H         -28.1917    6.6381  -35.7482 H          0 <0>        0.000
     34 H         -24.2192    6.1482  -34.3235 H          0 <0>        0.000
     35 H         -24.7815    7.6104  -31.5821 H          0 <0>        0.000
     36 N         -26.9302    3.9990  -32.3341 N.1        0 <0>       -0.028
     37 C         -26.8894    4.7032  -33.2551 C.1        0 <0>       -0.419
     38 O         -33.4397   -0.9872  -36.2220 O.3        0 <0>       -0.038
     39 C         -33.8801   -0.7771  -37.5578 C.3        0 <0>       -0.026
     40 O         -33.9061   -2.0006  -38.2662 O.2        0 <0>       -0.014
     41 O         -35.1691   -0.2005  -37.6366 O.2        0 <0>       -0.011
     42 S         -33.2137    0.3980  -35.3174 S.3        0 <0>       -0.117
     43 C         -34.7289    0.3180  -34.3307 C.3        0 <0>       -0.050
     44 H         -33.1834   -1.9581  -38.9086 H          0 <0>        0.000
     45 H         -35.0331    0.7053  -37.9503 H          0 <0>        0.000
     46 H         -34.7461    1.1495  -33.6218 H          0 <0>        0.000
     47 H         -34.7636   -0.6219  -33.7738 H          0 <0>        0.000
     48 H         -35.6089    0.3866  -34.9748 H          0 <0>        0.000
     49 N         -30.5682    3.2797  -41.8902 N.1        0 <0>       -0.163
     50 C         -30.1150    3.1976  -40.8255 C.1        0 <0>       -0.243
@<TRIPOS>BOND
     1    2    1 ar 
     2    2    3 ar 
     3    3    4 ar 
     4    4    5 ar 
     5    1    5 ar 
     6    6    2 1  
     7    7    8 1  
     8    8    9 1  
     9    9   10 1  
    10    8   11 1  
    11    7   12 1  
    12    9   13 1  
    13   10   14 1  
    14   10   15 1  
    15   12   16 1  
    16    5   10 1  
    17   17   18 1  
    18   18   19 am 
    19   19   20 2  
    20   17   21 1  
    21   21   22 1  
    22   11   19 1  
    23   23   24 3  
    24    4   24 1  
    25   25   26 1  
    26   26   27 1  
    27   25   28 1  
    28   28   29 1  
    29   25   30 1  
    30   26   31 1  
    31   27   32 1  
    32   27   33 1  
    33   28   34 1  
    34   29   35 1  
    35   18   27 1  
    36   36   37 3  
    37   26   37 1  
    38   38   39 1  
    39   39   40 1  
    40   39   41 1  
    41   38   42 1  
    42   42   43 1  
    43   40   44 1  
    44   41   45 1  
    45   43   46 1  
    46   43   47 1  
    47   43   48 1  
    48    3   39 1  
    49   49   50 3  
    50    9   50 1  
