@<TRIPOS>MOLECULE
QAKBQQHZGUYTNY-ZYLJPLBTSA-P
   51    51     1     1     1
SMALL
USER_CHARGES


@<TRIPOS>ATOM
      1 N1        -32.0820    1.6940  -39.7040 N.ar       0 <0>       -0.066
      2 C7        -33.1720    1.0560  -39.3210 C.ar       0 <0>       -0.037
      3 C8        -32.8920    0.1390  -38.2720 C.ar       0 <0>       -0.045
      4 C9        -31.5540    0.2510  -38.0390 C.ar       0 <0>       -0.121
      5 N2        -31.0790    1.2090  -38.9330 N.ar       0 <0>       -0.121
      6 H7        -34.1511    1.2109  -39.7497 H          0 <0>        0.000
      7 O         -30.1110    5.3055  -39.1851 O.3        0 <0>       -0.205
      8 N         -30.2829    3.9954  -38.5895 N.4        0 <0>       -0.261
      9 C         -29.5454    3.0945  -39.4873 C.3        0 <0>       -0.345
     10 C         -29.6471    1.6453  -39.0288 C.3        0 <0>       -0.243
     11 O         -29.5499    3.9930  -37.3340 O.3        0 <0>       -0.370
     12 O         -31.4104    5.8543  -39.4769 O.3        0 <0>       -0.225
     13 H         -28.4900    3.3858  -39.5587 H          0 <0>        0.000
     14 H         -29.1759    1.4957  -38.0521 H          0 <0>        0.000
     15 H         -29.1435    0.9894  -39.7463 H          0 <0>        0.000
     16 H         -31.8620    5.3398  -38.7875 H          0 <0>        0.000
     17 O         -30.3045    4.5932  -35.0130 O.3        0 <0>       -0.160
     18 N         -28.9482    4.7637  -35.3082 N.am       0 <0>       -0.409
     19 C         -28.5460    4.2424  -36.4980 C.2        0 <0>       -0.564
     20 O         -27.3748    4.0454  -36.7952 O.2        0 <0>       -0.432
     21 O         -30.4814    4.5042  -33.5833 O.3        0 <0>       -0.004
     22 H         -30.9655    5.3436  -33.4891 H          0 <0>        0.000
     23 N         -30.1637   -1.0615  -36.2770 N.1        0 <0>       -0.247
     24 C         -30.7840   -0.4759  -37.0631 C.1        0 <0>       -0.213
     25 N         -26.2695    6.6289  -33.5244 N.3        0 <0>       -0.590
     26 C         -26.9500    5.4685  -34.1059 C.3        0 <0>       -0.615
     27 C         -28.2757    5.9021  -34.7131 C.3        0 <0>       -0.588
     28 N         -25.0372    6.1960  -32.9346 N.3        0 <0>       -0.600
     29 S         -24.4318    7.3905  -31.9639 S.3        0 <0>       -0.578
     30 H         -26.8720    7.0474  -32.8133 H          0 <0>        0.000
     31 H         -26.3309    5.0177  -34.8909 H          0 <0>        0.000
     32 H         -28.9405    6.3268  -33.9533 H          0 <0>        0.000
     33 H         -28.1258    6.6525  -35.4967 H          0 <0>        0.000
     34 H         -25.2208    7.2071  -30.8940 H          0 <0>        0.000
     35 O         -21.8943    5.4420  -34.7456 O.3        0 <0>       -0.166
     36 C         -22.7087    6.0354  -33.7224 C.3        0 <0>       -0.484
     37 C         -24.1561    5.6476  -33.9757 C.3        0 <0>       -0.540
     38 O         -22.3073    5.5765  -32.4357 O.3        0 <0>       -0.296
     39 N         -20.5923    6.1058  -34.7800 N.4        0 <0>       -0.071
     40 H         -22.6142    7.1275  -33.7500 H          0 <0>        0.000
     41 H         -24.2738    4.5581  -33.9661 H          0 <0>        0.000
     42 H         -24.4888    6.0021  -34.9563 H          0 <0>        0.000
     43 H         -22.5377    4.6350  -32.4049 H          0 <0>        0.000
     44 H         -20.3859    6.0890  -35.7790 H          0 <0>        0.000
     45 H         -19.9970    5.3966  -34.3498 H          0 <0>        0.000
     46 N         -30.5682    3.2797  -41.8902 N.1        0 <0>       -0.163
     47 C         -30.1150    3.1976  -40.8255 C.1        0 <0>       -0.243
     48 N         -27.4001    3.6481  -32.2790 N.1        0 <0>        0.125
     49 C         -27.2007    4.4547  -33.0885 C.1        0 <0>       -0.234
     50 N         -34.5766   -1.4228  -37.0543 N.1        0 <0>       -0.016
     51 C         -33.8250   -0.7260  -37.5976 C.1        0 <0>       -0.027
@<TRIPOS>BOND
     1    2    1 ar 
     2    2    3 ar 
     3    3    4 ar 
     4    4    5 ar 
     5    1    5 ar 
     6    6    2 1  
     7    7    8 1  
     8    8    9 1  
     9    9   10 1  
    10    8   11 1  
    11    7   12 1  
    12    9   13 1  
    13   10   14 1  
    14   10   15 1  
    15   12   16 1  
    16    5   10 1  
    17   17   18 1  
    18   18   19 am 
    19   19   20 2  
    20   17   21 1  
    21   21   22 1  
    22   11   19 1  
    23   23   24 3  
    24    4   24 1  
    25   25   26 1  
    26   26   27 1  
    27   25   28 1  
    28   28   29 1  
    29   25   30 1  
    30   26   31 1  
    31   27   32 1  
    32   27   33 1  
    33   29   34 1  
    34   18   27 1  
    35   35   36 1  
    36   36   37 1  
    37   36   38 1  
    38   35   39 1  
    39   36   40 1  
    40   37   41 1  
    41   37   42 1  
    42   38   43 1  
    43   39   44 1  
    44   39   45 1  
    45   28   37 1  
    46   46   47 3  
    47    9   47 1  
    48   48   49 3  
    49   26   49 1  
    50   50   51 3  
    51    3   51 1  
