@<TRIPOS>MOLECULE
XALSNQNAZSQEMN-OLHXFANGSA-O
   51    51     1     1     1
SMALL
USER_CHARGES


@<TRIPOS>ATOM
      1 N1        -32.0820    1.6940  -39.7040 N.ar       0 <0>       -0.066
      2 C7        -33.1720    1.0560  -39.3210 C.ar       0 <0>       -0.037
      3 C8        -32.8920    0.1390  -38.2720 C.ar       0 <0>       -0.045
      4 C9        -31.5540    0.2510  -38.0390 C.ar       0 <0>       -0.121
      5 N2        -31.0790    1.2090  -38.9330 N.ar       0 <0>       -0.121
      6 H7        -34.1511    1.2109  -39.7497 H          0 <0>        0.000
      7 O         -30.1110    5.3055  -39.1851 O.3        0 <0>       -0.205
      8 N         -30.2829    3.9954  -38.5895 N.4        0 <0>       -0.261
      9 C         -29.5454    3.0945  -39.4873 C.3        0 <0>       -0.345
     10 C         -29.6471    1.6453  -39.0288 C.3        0 <0>       -0.243
     11 O         -29.5499    3.9930  -37.3340 O.3        0 <0>       -0.370
     12 O         -31.4104    5.8543  -39.4769 O.3        0 <0>       -0.225
     13 H         -28.4900    3.3858  -39.5587 H          0 <0>        0.000
     14 H         -29.1759    1.4957  -38.0521 H          0 <0>        0.000
     15 H         -29.1435    0.9894  -39.7463 H          0 <0>        0.000
     16 H         -31.8620    5.3398  -38.7875 H          0 <0>        0.000
     17 O         -30.3045    4.5932  -35.0130 O.3        0 <0>       -0.160
     18 N         -28.9482    4.7637  -35.3082 N.am       0 <0>       -0.409
     19 C         -28.5460    4.2424  -36.4980 C.2        0 <0>       -0.564
     20 O         -27.3748    4.0454  -36.7952 O.2        0 <0>       -0.432
     21 O         -30.4814    4.5042  -33.5833 O.3        0 <0>       -0.004
     22 H         -30.9655    5.3436  -33.4891 H          0 <0>        0.000
     23 N         -30.1637   -1.0615  -36.2770 N.1        0 <0>       -0.247
     24 C         -30.7840   -0.4759  -37.0631 C.1        0 <0>       -0.213
     25 N         -26.1180    6.8008  -34.0135 N.3        0 <0>       -0.556
     26 C         -26.8380    5.5883  -34.4125 C.3        0 <0>       -0.603
     27 C         -28.2340    5.9553  -34.8930 C.3        0 <0>       -0.580
     28 N         -24.8168    6.4321  -33.5393 N.3        0 <0>       -0.587
     29 S         -24.1266    7.7108  -32.7491 S.3        0 <0>       -0.537
     30 H         -26.6417    7.2718  -33.2735 H          0 <0>        0.000
     31 H         -26.3058    5.0791  -35.2249 H          0 <0>        0.000
     32 H         -28.8141    6.4360  -34.0979 H          0 <0>        0.000
     33 H         -28.1917    6.6381  -35.7482 H          0 <0>        0.000
     34 H         -24.2192    6.1482  -34.3235 H          0 <0>        0.000
     35 H         -24.7815    7.6104  -31.5821 H          0 <0>        0.000
     36 N         -29.1254    3.6423  -41.8329 N.3        0 <0>       -0.288
     37 C         -29.6363    3.7273  -43.1732 C.3        0 <0>       -0.266
     38 N         -28.5475    4.2487  -43.9534 N.3        0 <0>       -0.100
     39 C         -30.1469    3.1929  -40.9016 C.3        0 <0>       -0.240
     40 H         -28.7681    4.5478  -41.5478 H          0 <0>        0.000
     41 H         -30.5009    4.3963  -43.2427 H          0 <0>        0.000
     42 H         -28.3276    5.1891  -43.6438 H          0 <0>        0.000
     43 H         -28.8353    4.3200  -44.9257 H          0 <0>        0.000
     44 H         -30.5193    2.1987  -41.1698 H          0 <0>        0.000
     45 H         -30.9892    3.8911  -40.8604 H          0 <0>        0.000
     46 N         -34.5766   -1.4228  -37.0543 N.1        0 <0>       -0.016
     47 C         -33.8250   -0.7260  -37.5976 C.1        0 <0>       -0.027
     48 N         -26.9302    3.9990  -32.3341 N.1        0 <0>       -0.028
     49 C         -26.8894    4.7032  -33.2551 C.1        0 <0>       -0.419
     50 N         -30.3146    1.3166  -43.9364 N.1        0 <0>       -0.108
     51 C         -30.0141    2.3847  -43.5983 C.1        0 <0>       -0.187
@<TRIPOS>BOND
     1    2    1 ar 
     2    2    3 ar 
     3    3    4 ar 
     4    4    5 ar 
     5    1    5 ar 
     6    6    2 1  
     7    7    8 1  
     8    8    9 1  
     9    9   10 1  
    10    8   11 1  
    11    7   12 1  
    12    9   13 1  
    13   10   14 1  
    14   10   15 1  
    15   12   16 1  
    16    5   10 1  
    17   17   18 1  
    18   18   19 am 
    19   19   20 2  
    20   17   21 1  
    21   21   22 1  
    22   11   19 1  
    23   23   24 3  
    24    4   24 1  
    25   25   26 1  
    26   26   27 1  
    27   25   28 1  
    28   28   29 1  
    29   25   30 1  
    30   26   31 1  
    31   27   32 1  
    32   27   33 1  
    33   28   34 1  
    34   29   35 1  
    35   18   27 1  
    36   36   37 1  
    37   37   38 1  
    38   36   39 1  
    39   36   40 1  
    40   37   41 1  
    41   38   42 1  
    42   38   43 1  
    43   39   44 1  
    44   39   45 1  
    45    9   39 1  
    46   46   47 3  
    47    3   47 1  
    48   48   49 3  
    49   26   49 1  
    50   50   51 3  
    51   37   51 1  
