@<TRIPOS>MOLECULE
CJBMAVLPEGGIOT-IILPRTNTSA-O
   47    47     1     1     1
SMALL
USER_CHARGES


@<TRIPOS>ATOM
      1 N1        -32.0820    1.6940  -39.7040 N.ar       0 <0>       -0.066
      2 C7        -33.1720    1.0560  -39.3210 C.ar       0 <0>       -0.037
      3 C8        -32.8920    0.1390  -38.2720 C.ar       0 <0>       -0.045
      4 C9        -31.5540    0.2510  -38.0390 C.ar       0 <0>       -0.121
      5 N2        -31.0790    1.2090  -38.9330 N.ar       0 <0>       -0.121
      6 H8        -33.5920   -0.5100  -37.7660 H          0 <0>        0.000
      7 O         -30.1110    5.3055  -39.1851 O.3        0 <0>       -0.205
      8 N         -30.2829    3.9954  -38.5895 N.4        0 <0>       -0.261
      9 C         -29.5454    3.0945  -39.4873 C.3        0 <0>       -0.345
     10 C         -29.6471    1.6453  -39.0288 C.3        0 <0>       -0.243
     11 O         -29.5499    3.9930  -37.3340 O.3        0 <0>       -0.370
     12 O         -31.4104    5.8543  -39.4769 O.3        0 <0>       -0.225
     13 H         -28.4900    3.3858  -39.5587 H          0 <0>        0.000
     14 H         -29.1759    1.4957  -38.0521 H          0 <0>        0.000
     15 H         -31.8620    5.3398  -38.7875 H          0 <0>        0.000
     16 O         -30.3045    4.5932  -35.0130 O.3        0 <0>       -0.160
     17 N         -28.9482    4.7637  -35.3082 N.am       0 <0>       -0.409
     18 C         -28.5460    4.2424  -36.4980 C.2        0 <0>       -0.564
     19 O         -27.3748    4.0454  -36.7952 O.2        0 <0>       -0.432
     20 O         -30.4814    4.5042  -33.5833 O.3        0 <0>       -0.004
     21 H         -30.9655    5.3436  -33.4891 H          0 <0>        0.000
     22 N         -30.1637   -1.0615  -36.2770 N.1        0 <0>       -0.247
     23 C         -30.7840   -0.4759  -37.0631 C.1        0 <0>       -0.213
     24 N         -26.1180    6.8008  -34.0135 N.3        0 <0>       -0.556
     25 C         -26.8380    5.5883  -34.4125 C.3        0 <0>       -0.603
     26 C         -28.2340    5.9553  -34.8930 C.3        0 <0>       -0.580
     27 N         -24.8168    6.4321  -33.5393 N.3        0 <0>       -0.587
     28 S         -24.1266    7.7108  -32.7491 S.3        0 <0>       -0.537
     29 H         -26.6417    7.2718  -33.2735 H          0 <0>        0.000
     30 H         -26.3058    5.0791  -35.2249 H          0 <0>        0.000
     31 H         -28.8141    6.4360  -34.0979 H          0 <0>        0.000
     32 H         -28.1917    6.6381  -35.7482 H          0 <0>        0.000
     33 H         -24.2192    6.1482  -34.3235 H          0 <0>        0.000
     34 H         -24.7815    7.6104  -31.5821 H          0 <0>        0.000
     35 N         -26.9302    3.9990  -32.3341 N.1        0 <0>       -0.028
     36 C         -26.8894    4.7032  -33.2551 C.1        0 <0>       -0.419
     37 O         -33.5351    1.0884  -41.8856 O.3        0 <0>       -0.016
     38 N         -34.6938    1.3645  -41.1528 N.am       0 <0>       -0.007
     39 C         -34.5964    1.1462  -39.8140 C.2        0 <0>       -0.013
     40 O         -35.5611    1.0597  -39.0652 O.2        0 <0>       -0.006
     41 O         -33.8942    0.6646  -43.2177 O.3        0 <0>       -0.010
     42 H         -35.5770    1.1876  -41.6126 H          0 <0>        0.000
     43 H         -33.5294    1.4439  -43.6733 H          0 <0>        0.000
     44 N         -30.5682    3.2797  -41.8902 N.1        0 <0>       -0.163
     45 C         -30.1150    3.1976  -40.8255 C.1        0 <0>       -0.243
     46 N         -28.4429    0.0769  -40.7446 N.1        0 <0>        0.123
     47 C         -28.9764    0.7719  -39.9843 C.1        0 <0>       -0.023
@<TRIPOS>BOND
     1    2    1 ar 
     2    2    3 ar 
     3    3    4 ar 
     4    3    6 1  
     5    4    5 ar 
     6    1    5 ar 
     7    7    8 1  
     8    8    9 1  
     9    9   10 1  
    10    8   11 1  
    11    7   12 1  
    12    9   13 1  
    13   10   14 1  
    14   12   15 1  
    15    5   10 1  
    16   16   17 1  
    17   17   18 am 
    18   18   19 2  
    19   16   20 1  
    20   20   21 1  
    21   11   18 1  
    22   22   23 3  
    23    4   23 1  
    24   24   25 1  
    25   25   26 1  
    26   24   27 1  
    27   27   28 1  
    28   24   29 1  
    29   25   30 1  
    30   26   31 1  
    31   26   32 1  
    32   27   33 1  
    33   28   34 1  
    34   17   26 1  
    35   35   36 3  
    36   25   36 1  
    37   37   38 1  
    38   38   39 am 
    39   39   40 2  
    40   37   41 1  
    41   38   42 1  
    42   41   43 1  
    43    2   39 1  
    44   44   45 3  
    45    9   45 1  
    46   46   47 3  
    47   10   47 1  
