@<TRIPOS>MOLECULE
XPYLKOVLJXQXSD-DTZXXLCVSA-P
   48    48     1     1     1
SMALL
USER_CHARGES


@<TRIPOS>ATOM
      1 N1        -32.0820    1.6940  -39.7040 N.ar       0 <0>       -0.066
      2 C7        -33.1720    1.0560  -39.3210 C.ar       0 <0>       -0.037
      3 C8        -32.8920    0.1390  -38.2720 C.ar       0 <0>       -0.045
      4 C9        -31.5540    0.2510  -38.0390 C.ar       0 <0>       -0.121
      5 N2        -31.0790    1.2090  -38.9330 N.ar       0 <0>       -0.121
      6 H7        -34.1511    1.2109  -39.7497 H          0 <0>        0.000
      7 O         -30.1110    5.3055  -39.1851 O.3        0 <0>       -0.205
      8 N         -30.2829    3.9954  -38.5895 N.4        0 <0>       -0.261
      9 C         -29.5454    3.0945  -39.4873 C.3        0 <0>       -0.345
     10 C         -29.6471    1.6453  -39.0288 C.3        0 <0>       -0.243
     11 O         -29.5499    3.9930  -37.3340 O.3        0 <0>       -0.370
     12 O         -31.4104    5.8543  -39.4769 O.3        0 <0>       -0.225
     13 H         -28.4900    3.3858  -39.5587 H          0 <0>        0.000
     14 H         -29.1759    1.4957  -38.0521 H          0 <0>        0.000
     15 H         -29.1435    0.9894  -39.7463 H          0 <0>        0.000
     16 H         -31.8620    5.3398  -38.7875 H          0 <0>        0.000
     17 O         -30.3045    4.5932  -35.0130 O.3        0 <0>       -0.160
     18 N         -28.9482    4.7637  -35.3082 N.am       0 <0>       -0.409
     19 C         -28.5460    4.2424  -36.4980 C.2        0 <0>       -0.564
     20 O         -27.3748    4.0454  -36.7952 O.2        0 <0>       -0.432
     21 O         -30.4814    4.5042  -33.5833 O.3        0 <0>       -0.004
     22 H         -30.9655    5.3436  -33.4891 H          0 <0>        0.000
     23 N         -30.1637   -1.0615  -36.2770 N.1        0 <0>       -0.247
     24 C         -30.7840   -0.4759  -37.0631 C.1        0 <0>       -0.213
     25 N         -26.6565    6.8193  -33.2204 N.3        0 <0>       -0.586
     26 C         -27.2560    5.5990  -33.7675 C.3        0 <0>       -0.642
     27 C         -28.3613    5.9648  -34.7467 C.3        0 <0>       -0.569
     28 N         -25.6373    6.4541  -32.2813 N.3        0 <0>       -0.597
     29 S         -25.2023    7.7753  -31.3863 S.3        0 <0>       -0.423
     30 H         -27.3822    7.3686  -32.7562 H          0 <0>        0.000
     31 H         -29.1586    6.5301  -34.2524 H          0 <0>        0.000
     32 H         -27.9737    6.5690  -35.5739 H          0 <0>        0.000
     33 H         -24.8158    6.0851  -32.7729 H          0 <0>        0.000
     34 H         -26.2378    7.7968  -30.5329 H          0 <0>        0.000
     35 O         -28.9423    4.7256  -30.6146 O.3        0 <0>        0.012
     36 N         -28.5630    5.6026  -31.6966 N.4        0 <0>       -0.484
     37 C         -27.8212    4.7481  -32.6151 C.3        0 <0>       -0.181
     38 O         -30.3579    4.8587  -30.4127 O.3        0 <0>       -0.255
     39 H         -27.9067    6.2209  -31.2163 H          0 <0>        0.000
     40 H         -28.4764    3.9868  -33.0504 H          0 <0>        0.000
     41 H         -26.9822    4.2530  -32.1151 H          0 <0>        0.000
     42 H         -30.5126    5.2810  -31.2758 H          0 <0>        0.000
     43 N         -34.5766   -1.4228  -37.0543 N.1        0 <0>       -0.016
     44 C         -33.8250   -0.7260  -37.5976 C.1        0 <0>       -0.027
     45 N         -25.4480    4.1813  -35.0226 N.1        0 <0>       -0.225
     46 C         -26.2491    4.8095  -34.4665 C.1        0 <0>       -0.440
     47 N         -30.5682    3.2797  -41.8902 N.1        0 <0>       -0.163
     48 C         -30.1150    3.1976  -40.8255 C.1        0 <0>       -0.243
@<TRIPOS>BOND
     1    2    1 ar 
     2    2    3 ar 
     3    3    4 ar 
     4    4    5 ar 
     5    1    5 ar 
     6    6    2 1  
     7    7    8 1  
     8    8    9 1  
     9    9   10 1  
    10    8   11 1  
    11    7   12 1  
    12    9   13 1  
    13   10   14 1  
    14   10   15 1  
    15   12   16 1  
    16    5   10 1  
    17   17   18 1  
    18   18   19 am 
    19   19   20 2  
    20   17   21 1  
    21   21   22 1  
    22   11   19 1  
    23   23   24 3  
    24    4   24 1  
    25   25   26 1  
    26   26   27 1  
    27   25   28 1  
    28   28   29 1  
    29   25   30 1  
    30   27   31 1  
    31   27   32 1  
    32   28   33 1  
    33   29   34 1  
    34   18   27 1  
    35   35   36 1  
    36   36   37 1  
    37   35   38 1  
    38   36   39 1  
    39   37   40 1  
    40   37   41 1  
    41   38   42 1  
    42   26   37 1  
    43   43   44 3  
    44    3   44 1  
    45   45   46 3  
    46   26   46 1  
    47   47   48 3  
    48    9   48 1  
