@<TRIPOS>MOLECULE
DNICOJMACGKOCQ-NPBHJFFNSA-P
   52    52     1     1     1
SMALL
USER_CHARGES


@<TRIPOS>ATOM
      1 N1        -32.0820    1.6940  -39.7040 N.ar       0 <0>       -0.066
      2 C7        -33.1720    1.0560  -39.3210 C.ar       0 <0>       -0.037
      3 C8        -32.8920    0.1390  -38.2720 C.ar       0 <0>       -0.045
      4 C9        -31.5540    0.2510  -38.0390 C.ar       0 <0>       -0.121
      5 N2        -31.0790    1.2090  -38.9330 N.ar       0 <0>       -0.121
      6 H7        -34.1511    1.2109  -39.7497 H          0 <0>        0.000
      7 O         -30.1110    5.3055  -39.1851 O.3        0 <0>       -0.205
      8 N         -30.2829    3.9954  -38.5895 N.4        0 <0>       -0.261
      9 C         -29.5454    3.0945  -39.4873 C.3        0 <0>       -0.345
     10 C         -29.6471    1.6453  -39.0288 C.3        0 <0>       -0.243
     11 O         -29.5499    3.9930  -37.3340 O.3        0 <0>       -0.370
     12 O         -31.4104    5.8543  -39.4769 O.3        0 <0>       -0.225
     13 H         -28.4900    3.3858  -39.5587 H          0 <0>        0.000
     14 H         -29.1759    1.4957  -38.0521 H          0 <0>        0.000
     15 H         -31.8620    5.3398  -38.7875 H          0 <0>        0.000
     16 O         -30.3045    4.5932  -35.0130 O.3        0 <0>       -0.160
     17 N         -28.9482    4.7637  -35.3082 N.am       0 <0>       -0.409
     18 C         -28.5460    4.2424  -36.4980 C.2        0 <0>       -0.564
     19 O         -27.3748    4.0454  -36.7952 O.2        0 <0>       -0.432
     20 O         -30.4814    4.5042  -33.5833 O.3        0 <0>       -0.004
     21 H         -30.9655    5.3436  -33.4891 H          0 <0>        0.000
     22 N         -30.1637   -1.0615  -36.2770 N.1        0 <0>       -0.247
     23 C         -30.7840   -0.4759  -37.0631 C.1        0 <0>       -0.213
     24 N         -25.9278    6.3250  -33.7996 N.3        0 <0>       -0.561
     25 C         -26.8366    5.2444  -34.1924 C.3        0 <0>       -0.585
     26 C         -28.0516    5.8270  -34.8984 C.3        0 <0>       -0.615
     27 N         -24.8042    5.7591  -33.1132 N.3        0 <0>       -0.530
     28 S         -23.9583    6.9547  -32.3447 S.3        0 <0>       -0.764
     29 H         -26.4252    6.9729  -33.1858 H          0 <0>        0.000
     30 H         -27.1695    4.6789  -33.3135 H          0 <0>        0.000
     31 H         -26.3303    4.5495  -34.8731 H          0 <0>        0.000
     32 H         -27.7594    6.3854  -35.7941 H          0 <0>        0.000
     33 H         -24.1898    5.2734  -33.7760 H          0 <0>        0.000
     34 H         -24.7576    7.1217  -31.2798 H          0 <0>        0.000
     35 N         -30.5682    3.2797  -41.8902 N.1        0 <0>       -0.163
     36 C         -30.1150    3.1976  -40.8255 C.1        0 <0>       -0.243
     37 N         -32.9827   -0.2526  -35.4509 N.3        0 <0>       -0.083
     38 C         -33.0649    0.8074  -34.4531 C.3        0 <0>       -0.162
     39 N         -34.1871   -0.2623  -36.2185 N.4        0 <0>       -0.030
     40 C         -33.8801   -0.7771  -37.5578 C.3        0 <0>       -0.026
     41 O         -35.1120   -1.2254  -35.6541 O.3        0 <0>       -0.017
     42 H         -32.8631   -1.1523  -34.9813 H          0 <0>        0.000
     43 H         -33.1757    1.7901  -34.9245 H          0 <0>        0.000
     44 H         -32.1402    0.8270  -33.8677 H          0 <0>        0.000
     45 H         -33.8976    0.6487  -33.7589 H          0 <0>        0.000
     46 H         -34.7910   -0.8020  -38.1659 H          0 <0>        0.000
     47 H         -33.4590   -1.7892  -37.5286 H          0 <0>        0.000
     48 H         -35.8585   -0.6368  -35.4413 H          0 <0>        0.000
     49 N         -29.2626    7.4049  -33.1961 N.1        0 <0>       -0.306
     50 C         -28.7260    6.7058  -33.9504 C.1        0 <0>       -0.464
     51 N         -28.4429    0.0769  -40.7446 N.1        0 <0>        0.123
     52 C         -28.9764    0.7719  -39.9843 C.1        0 <0>       -0.023
@<TRIPOS>BOND
     1    2    1 ar 
     2    2    3 ar 
     3    3    4 ar 
     4    4    5 ar 
     5    1    5 ar 
     6    6    2 1  
     7    7    8 1  
     8    8    9 1  
     9    9   10 1  
    10    8   11 1  
    11    7   12 1  
    12    9   13 1  
    13   10   14 1  
    14   12   15 1  
    15    5   10 1  
    16   16   17 1  
    17   17   18 am 
    18   18   19 2  
    19   16   20 1  
    20   20   21 1  
    21   11   18 1  
    22   22   23 3  
    23    4   23 1  
    24   24   25 1  
    25   25   26 1  
    26   24   27 1  
    27   27   28 1  
    28   24   29 1  
    29   25   30 1  
    30   25   31 1  
    31   26   32 1  
    32   27   33 1  
    33   28   34 1  
    34   17   26 1  
    35   35   36 3  
    36    9   36 1  
    37   37   38 1  
    38   37   39 1  
    39   39   40 1  
    40   39   41 1  
    41   37   42 1  
    42   38   43 1  
    43   38   44 1  
    44   38   45 1  
    45   40   46 1  
    46   40   47 1  
    47   41   48 1  
    48    3   40 1  
    49   49   50 3  
    50   26   50 1  
    51   51   52 3  
    52   10   52 1  
