REMARK  Name = 
REMARK  18 active torsions:
REMARK  status: ('A' for Active; 'I' for Inactive)
REMARK    1  A    between atoms: C_1  and  N_2
REMARK    2  A    between atoms: C_1  and  C_25
REMARK    3  A    between atoms: N_2  and  C_3
REMARK    4  A    between atoms: N_2  and  C_13
REMARK    5  A    between atoms: C_3  and  C_4
REMARK    6  A    between atoms: C_3  and  C_12
REMARK    7  A    between atoms: C_4  and  C_5
REMARK    8  A    between atoms: C_4  and  C_11
REMARK    9  A    between atoms: C_5  and  C_6
REMARK   10  A    between atoms: C_5  and  C_10
REMARK   11  A    between atoms: C_6  and  C_7
REMARK   12  A    between atoms: C_7  and  C_8
REMARK   13  A    between atoms: C_7  and  C_9
REMARK   14  A    between atoms: C_13  and  C_14
REMARK   15  A    between atoms: C_14  and  C_16
REMARK   16  A    between atoms: C_16  and  C_18
REMARK   17  A    between atoms: C_18  and  C_20
REMARK   18  A    between atoms: C_20  and  C_22
REMARK                            x       y       z     vdW  Elec       q    Type
REMARK                         _______ _______ _______ _____ _____    ______ ____
ROOT
ATOM      1  N   UNL     1       0.391   1.286  -0.869  0.00  0.00    -0.297 NA
ENDROOT
BRANCH   1   2
ATOM      2  C   UNL     1      -0.996   0.809  -0.728  0.00  0.00    +0.081 C 
ATOM      3  C   UNL     1      -1.279  -0.636  -1.144  0.00  0.00    +0.020 C 
ENDBRANCH   1   2
BRANCH   1   4
ATOM      4  C   UNL     1       0.993   1.068  -2.216  0.00  0.00    +0.057 C 
ATOM      5  C   UNL     1       2.529   1.077  -2.102  0.00  0.00    +0.024 C 
BRANCH   4   6
ATOM      6  C   UNL     1       0.399   1.799  -3.493  0.00  0.00    +0.006 C 
ATOM      7  C   UNL     1       1.013   1.177  -4.772  0.00  0.00    +0.009 C 
BRANCH   6   8
ATOM      8  C   UNL     1       0.388   3.370  -3.582  0.00  0.00    -0.010 C 
ATOM      9  C   UNL     1      -0.528   3.841  -4.732  0.00  0.00    +0.008 C 
BRANCH   8  10
ATOM     10  C   UNL     1       1.785   4.026  -3.673  0.00  0.00    +0.006 C 
BRANCH  10  11
ATOM     11  C   UNL     1       1.820   5.570  -3.790  0.00  0.00    -0.017 C 
ATOM     12  C   UNL     1       3.272   6.058  -3.834  0.00  0.00    +0.007 C 
ATOM     13  C   UNL     1       1.084   6.268  -2.645  0.00  0.00    +0.007 C 
ENDBRANCH  10  11
ENDBRANCH   8  10
ENDBRANCH   6   8
ENDBRANCH   4   6
ENDBRANCH   1   4
BRANCH   1  14
ATOM     14  C   UNL     1       0.550   2.642  -0.309  0.00  0.00    +0.124 C 
BRANCH  14  15
ATOM     15  C   UNL     1       0.285   2.895   1.198  0.00  0.00    +0.217 C 
ATOM     16  F   UNL     1      -1.021   2.625   1.493  0.00  0.00    -0.241 F 
BRANCH  15  17
ATOM     17  C   UNL     1       1.179   2.181   2.209  0.00  0.00    +0.238 C 
ATOM     18  F   UNL     1       1.119   0.833   2.045  0.00  0.00    -0.239 F 
BRANCH  17  19
ATOM     19  C   UNL     1       2.630   2.631   2.116  0.00  0.00    +0.242 C 
ATOM     20  F   UNL     1       2.660   3.999   2.177  0.00  0.00    -0.239 F 
BRANCH  19  21
ATOM     21  C   UNL     1       3.497   2.097   3.248  0.00  0.00    +0.268 C 
ATOM     22  F   UNL     1       2.935   2.451   4.444  0.00  0.00    -0.236 F 
BRANCH  21  23
ATOM     23  C   UNL     1       3.670   0.593   3.205  0.00  0.00    +0.377 C 
ATOM     24  F   UNL     1       4.659   0.231   4.068  0.00  0.00    -0.206 F 
ATOM     25  F   UNL     1       4.091   0.214   1.972  0.00  0.00    -0.206 F 
ENDBRANCH  21  23
ENDBRANCH  19  21
ENDBRANCH  17  19
ENDBRANCH  15  17
ENDBRANCH  14  15
ENDBRANCH   1  14
TORSDOF 12
