REMARK  Name = 
REMARK  3 active torsions:
REMARK  status: ('A' for Active; 'I' for Inactive)
REMARK    1  A    between atoms: C_1  and  C_2
REMARK    2  A    between atoms: C_7  and  N_8
REMARK    3  A    between atoms: C_9  and  C_11
REMARK                            x       y       z     vdW  Elec       q    Type
REMARK                         _______ _______ _______ _____ _____    ______ ____
ROOT
ATOM      1  N   UNL     1       2.337  -2.259  -0.247  0.00  0.00    -0.281 N 
ATOM      2  H   UNL     1       2.942  -3.012  -0.553  0.00  0.00    +0.155 HD
ATOM      3  C   UNL     1       1.013  -2.584   0.023  0.00  0.00    +0.251 C 
ATOM      4  O   UNL     1       0.155  -1.812   0.445  0.00  0.00    -0.270 OA
ENDROOT
BRANCH   1   7
ATOM      5  C   UNL     1       5.233  -1.949  -0.781  0.00  0.00    +0.045 C 
ATOM      6  C   UNL     1       4.331  -0.823  -0.351  0.00  0.00    -0.029 A 
ATOM      7  C   UNL     1       2.945  -0.979  -0.114  0.00  0.00    +0.037 A 
ATOM      8  C   UNL     1       2.203   0.153   0.249  0.00  0.00    +0.023 A 
ATOM      9  C   UNL     1       2.798   1.407   0.397  0.00  0.00    +0.002 A 
ATOM     10  C   UNL     1       4.157   1.557   0.175  0.00  0.00    +0.000 A 
ATOM     11  C   UNL     1       4.916   0.453  -0.204  0.00  0.00    +0.005 A 
ENDBRANCH   1   7
BRANCH   3  12
ATOM     12  C   UNL     1       0.576  -3.993  -0.212  0.00  0.00    +0.072 A 
ATOM     13  C   UNL     1       1.421  -4.992  -0.688  0.00  0.00    +0.135 A 
ATOM     14  F   UNL     1       2.714  -4.741  -0.946  0.00  0.00    -0.205 F 
ATOM     15  C   UNL     1       0.947  -6.288  -0.912  0.00  0.00    +0.039 A 
ATOM     16  C   UNL     1      -0.388  -6.600  -0.656  0.00  0.00    +0.003 A 
ATOM     17  C   UNL     1      -1.245  -5.616  -0.168  0.00  0.00    +0.001 A 
ATOM     18  C   UNL     1      -0.766  -4.322   0.052  0.00  0.00    +0.016 A 
ENDBRANCH   3  12
TORSDOF 2
