REMARK  3 active torsions:
REMARK  status: ('A' for Active; 'I' for Inactive)
REMARK       I    between atoms: N1_2  and  C2_3 
REMARK    1  A    between atoms: C2_3  and  C3_5 
REMARK    2  A    between atoms: C8_10  and  N2_11 
REMARK    3  A    between atoms: N2_11  and  C9_12 
ROOT
HETATM    1  C3  UNL     1      -1.879  -1.057  -0.011  1.00  0.00     0.058 A 
HETATM    2  C4  UNL     1      -2.510  -2.290   0.243  1.00  0.00     0.019 A 
HETATM    3  C5  UNL     1      -1.774  -3.472   0.316  1.00  0.00     0.001 A 
HETATM    4  C6  UNL     1      -0.399  -3.439   0.123  1.00  0.00     0.002 A 
HETATM    5  C7  UNL     1       0.240  -2.225  -0.138  1.00  0.00     0.030 A 
HETATM    6  C8  UNL     1      -0.477  -1.014  -0.188  1.00  0.00     0.048 A 
ENDROOT
BRANCH   6   7
HETATM    7  N2  UNL     1       0.187   0.192  -0.547  1.00  0.00    -0.353 N 
HETATM    8  H9  UNL     1      -0.045   0.422  -1.520  1.00  0.00     0.166 HD
BRANCH   7   9
HETATM    9  C9  UNL     1       1.531   0.556  -0.279  1.00  0.00     0.071 A 
HETATM   10  C10 UNL     1       2.167   0.225   0.923  1.00  0.00     0.033 A 
HETATM   11  C11 UNL     1       3.473   0.655   1.181  1.00  0.00     0.002 A 
HETATM   12  C12 UNL     1       4.154   1.439   0.248  1.00  0.00     0.003 A 
HETATM   13  C13 UNL     1       3.525   1.804  -0.940  1.00  0.00     0.044 A 
HETATM   14  C14 UNL     1       2.225   1.372  -1.187  1.00  0.00     0.142 A 
HETATM   15  F1  UNL     1       1.624   1.738  -2.330  1.00  0.00    -0.204 F 
ENDBRANCH   7   9
ENDBRANCH   6   7
BRANCH   1  16
HETATM   16  C2  UNL     1      -2.776   0.144  -0.057  1.00  0.00     0.253 C 
HETATM   17  N1  UNL     1      -2.178   1.378   0.059  1.00  0.00    -0.361 N 
HETATM   18  C1  UNL     1      -2.945   2.592   0.152  1.00  0.00     0.149 C 
HETATM   19  H4  UNL     1      -1.182   1.405   0.263  1.00  0.00     0.162 HD
HETATM   20  O1  UNL     1      -3.991   0.006  -0.168  1.00  0.00    -0.268 OA
ENDBRANCH   1  16
TORSDOF 3
