MODEL 1
REMARK VINA RESULT:      -5.7      0.000      0.000
REMARK  Name = 
REMARK  18 active torsions:
REMARK  status: ('A' for Active; 'I' for Inactive)
REMARK    1  A    between atoms: C_1  and  N_2
REMARK    2  A    between atoms: C_1  and  C_25
REMARK    3  A    between atoms: N_2  and  C_3
REMARK    4  A    between atoms: N_2  and  C_13
REMARK    5  A    between atoms: C_3  and  C_4
REMARK    6  A    between atoms: C_3  and  C_12
REMARK    7  A    between atoms: C_4  and  C_5
REMARK    8  A    between atoms: C_4  and  C_11
REMARK    9  A    between atoms: C_5  and  C_6
REMARK   10  A    between atoms: C_5  and  C_10
REMARK   11  A    between atoms: C_6  and  C_7
REMARK   12  A    between atoms: C_7  and  C_8
REMARK   13  A    between atoms: C_7  and  C_9
REMARK   14  A    between atoms: C_13  and  C_14
REMARK   15  A    between atoms: C_14  and  C_16
REMARK   16  A    between atoms: C_16  and  C_18
REMARK   17  A    between atoms: C_18  and  C_20
REMARK   18  A    between atoms: C_20  and  C_22
REMARK                            x       y       z     vdW  Elec       q    Type
REMARK                         _______ _______ _______ _____ _____    ______ ____
ROOT
ATOM      1  N   UNL     1     -10.757  13.881  67.101  0.00  0.00    -0.297 NA
ENDROOT
BRANCH   1   2
ATOM      2  C   UNL     1     -10.677  12.660  66.281  0.00  0.00    +0.081 C 
ATOM      3  C   UNL     1     -10.081  11.416  66.944  0.00  0.00    +0.020 C 
ENDBRANCH   1   2
BRANCH   1   4
ATOM      4  C   UNL     1     -10.544  15.152  66.352  0.00  0.00    +0.057 C 
ATOM      5  C   UNL     1     -10.948  14.956  64.878  0.00  0.00    +0.024 C 
BRANCH   4   6
ATOM      6  C   UNL     1      -9.238  16.021  66.592  0.00  0.00    +0.006 C 
ATOM      7  C   UNL     1      -8.049  15.081  66.916  0.00  0.00    +0.009 C 
BRANCH   6   8
ATOM      8  C   UNL     1      -9.265  17.251  67.572  0.00  0.00    -0.010 C 
ATOM      9  C   UNL     1      -8.950  16.801  69.015  0.00  0.00    +0.008 C 
BRANCH   8  10
ATOM     10  C   UNL     1     -10.557  18.098  67.518  0.00  0.00    +0.006 C 
BRANCH  10  11
ATOM     11  C   UNL     1     -10.399  19.578  67.091  0.00  0.00    -0.017 C 
ATOM     12  C   UNL     1     -10.666  19.721  65.589  0.00  0.00    +0.007 C 
ATOM     13  C   UNL     1      -9.016  20.145  67.417  0.00  0.00    +0.007 C 
ENDBRANCH  10  11
ENDBRANCH   8  10
ENDBRANCH   6   8
ENDBRANCH   4   6
ENDBRANCH   1   4
BRANCH   1  14
ATOM     14  C   UNL     1     -11.935  13.852  67.990  0.00  0.00    +0.124 C 
BRANCH  14  15
ATOM     15  C   UNL     1     -11.929  14.662  69.313  0.00  0.00    +0.217 C 
ATOM     16  F   UNL     1     -12.220  15.972  69.058  0.00  0.00    -0.241 F 
BRANCH  15  17
ATOM     17  C   UNL     1     -12.815  14.171  70.454  0.00  0.00    +0.238 C 
ATOM     18  F   UNL     1     -12.186  13.209  71.179  0.00  0.00    -0.239 F 
BRANCH  17  19
ATOM     19  C   UNL     1     -13.239  15.299  71.384  0.00  0.00    +0.242 C 
ATOM     20  F   UNL     1     -14.337  14.884  72.090  0.00  0.00    -0.239 F 
BRANCH  19  21
ATOM     21  C   UNL     1     -12.161  15.686  72.387  0.00  0.00    +0.268 C 
ATOM     22  F   UNL     1     -11.613  16.883  72.012  0.00  0.00    -0.236 F 
BRANCH  21  23
ATOM     23  C   UNL     1     -12.682  15.800  73.804  0.00  0.00    +0.377 C 
ATOM     24  F   UNL     1     -12.219  16.953  74.361  0.00  0.00    -0.206 F 
ATOM     25  F   UNL     1     -12.180  14.791  74.560  0.00  0.00    -0.206 F 
ENDBRANCH  21  23
ENDBRANCH  19  21
ENDBRANCH  17  19
ENDBRANCH  15  17
ENDBRANCH  14  15
ENDBRANCH   1  14
TORSDOF 12
ENDMDL
