REMARK  Name = 
REMARK  12 active torsions:
REMARK  status: ('A' for Active; 'I' for Inactive)
REMARK    1  A    between atoms: C_1  and  N_2
REMARK    2  A    between atoms: C_1  and  C_12
REMARK    3  A    between atoms: N_2  and  C_3
REMARK    4  A    between atoms: N_2  and  C_11
REMARK    5  A    between atoms: C_3  and  C_4
REMARK    6  A    between atoms: C_3  and  C_6
REMARK    7  A    between atoms: C_4  and  C_5
REMARK    8  A    between atoms: C_6  and  O_7
REMARK    9  A    between atoms: O_7  and  C_8
REMARK   10  A    between atoms: C_8  and  C_9
REMARK   11  A    between atoms: C_8  and  C_10
REMARK   12  A    between atoms: C_12  and  O_13
REMARK                            x       y       z     vdW  Elec       q    Type
REMARK                         _______ _______ _______ _____ _____    ______ ____
ROOT
ATOM      1  C   UNL     1       0.840   1.062   2.178  0.00  0.00    +0.082 C 
ENDROOT
BRANCH   1   2
ATOM      2  N   UNL     1       0.426  -0.056   1.269  0.00  0.00    -0.298 NA
ATOM      3  C   UNL     1       1.047  -1.341   1.625  0.00  0.00    +0.105 C 
BRANCH   2   4
ATOM      4  C   UNL     1      -1.036  -0.262   1.120  0.00  0.00    +0.112 C 
BRANCH   4   5
ATOM      5  C   UNL     1      -1.806   0.931   0.533  0.00  0.00    +0.171 C 
BRANCH   5   6
ATOM      6  O   UNL     1      -1.276   1.307  -0.734  0.00  0.00    -0.394 OA
ATOM      7  H   UNL     1      -0.310   1.175  -0.665  0.00  0.00    +0.209 HD
ENDBRANCH   5   6
ENDBRANCH   4   5
ENDBRANCH   2   4
ENDBRANCH   1   2
BRANCH   1   8
ATOM      8  C   UNL     1       0.333   0.908   3.639  0.00  0.00    +0.018 C 
ATOM      9  C   UNL     1       0.562   2.130   4.527  0.00  0.00    +0.005 C 
ENDBRANCH   1   8
BRANCH   1  10
ATOM     10  C   UNL     1       2.391   1.280   2.171  0.00  0.00    +0.179 C 
BRANCH  10  11
ATOM     11  O   UNL     1       2.963   1.575   0.895  0.00  0.00    -0.376 OA
BRANCH  11  12
ATOM     12  C   UNL     1       2.568   2.808   0.290  0.00  0.00    +0.112 C 
ATOM     13  C   UNL     1       3.395   2.949  -0.985  0.00  0.00    +0.037 C 
ATOM     14  C   UNL     1       2.799   4.023   1.188  0.00  0.00    +0.037 C 
ENDBRANCH  11  12
ENDBRANCH  10  11
ENDBRANCH   1  10
TORSDOF 8
