MODEL 1
REMARK VINA RESULT:      -4.2      0.000      0.000
REMARK  Name = 
REMARK  12 active torsions:
REMARK  status: ('A' for Active; 'I' for Inactive)
REMARK    1  A    between atoms: C_1  and  N_2
REMARK    2  A    between atoms: C_1  and  C_12
REMARK    3  A    between atoms: N_2  and  C_3
REMARK    4  A    between atoms: N_2  and  C_11
REMARK    5  A    between atoms: C_3  and  C_4
REMARK    6  A    between atoms: C_3  and  C_6
REMARK    7  A    between atoms: C_4  and  C_5
REMARK    8  A    between atoms: C_6  and  O_7
REMARK    9  A    between atoms: O_7  and  C_8
REMARK   10  A    between atoms: C_8  and  C_9
REMARK   11  A    between atoms: C_8  and  C_10
REMARK   12  A    between atoms: C_12  and  O_13
REMARK                            x       y       z     vdW  Elec       q    Type
REMARK                         _______ _______ _______ _____ _____    ______ ____
ROOT
ATOM      1  C   UNL     1      -9.731  15.472  67.096  0.00  0.00    +0.082 C 
ENDROOT
BRANCH   1   2
ATOM      2  N   UNL     1     -10.510  14.392  66.409  0.00  0.00    -0.298 NA
ATOM      3  C   UNL     1     -11.873  14.245  66.941  0.00  0.00    +0.105 C 
BRANCH   2   4
ATOM      4  C   UNL     1     -10.588  14.490  64.930  0.00  0.00    +0.112 C 
BRANCH   4   5
ATOM      5  C   UNL     1     -11.848  15.183  64.388  0.00  0.00    +0.171 C 
BRANCH   5   6
ATOM      6  O   UNL     1     -11.536  16.466  63.855  0.00  0.00    -0.394 OA
ATOM      7  H   UNL     1     -10.672  16.709  64.243  0.00  0.00    +0.209 HD
ENDBRANCH   5   6
ENDBRANCH   4   5
ENDBRANCH   2   4
ENDBRANCH   1   2
BRANCH   1   8
ATOM      8  C   UNL     1      -8.524  16.002  66.272  0.00  0.00    +0.018 C 
ATOM      9  C   UNL     1      -7.266  16.286  67.091  0.00  0.00    +0.005 C 
ENDBRANCH   1   8
BRANCH   1  10
ATOM     10  C   UNL     1     -10.644  16.667  67.534  0.00  0.00    +0.179 C 
BRANCH  10  11
ATOM     11  O   UNL     1     -10.683  17.773  66.629  0.00  0.00    -0.376 OA
BRANCH  11  12
ATOM     12  C   UNL     1     -10.654  19.076  67.214  0.00  0.00    +0.112 C 
ATOM     13  C   UNL     1     -10.009  19.999  66.184  0.00  0.00    +0.037 C 
ATOM     14  C   UNL     1      -9.864  19.134  68.521  0.00  0.00    +0.037 C 
ENDBRANCH  11  12
ENDBRANCH  10  11
ENDBRANCH   1  10
TORSDOF 8
ENDMDL
