MODEL 1
REMARK VINA RESULT:      -4.0      0.000      0.000
REMARK  Name = 
REMARK  2 active torsions:
REMARK  status: ('A' for Active; 'I' for Inactive)
REMARK    1  A    between atoms: C_1  and  O_2
REMARK    2  A    between atoms: O_2  and  C_3
REMARK                            x       y       z     vdW  Elec       q    Type
REMARK                         _______ _______ _______ _____ _____    ______ ____
ROOT
ATOM      1  C   UNL     1     -10.565  18.067  66.051  0.00  0.00    +0.155 A 
ATOM      2  C   UNL     1     -10.501  19.463  66.099  0.00  0.00    +0.165 A 
ATOM      3  F   UNL     1     -10.838  20.192  65.024  0.00  0.00    -0.202 F 
ATOM      4  C   UNL     1     -10.107  20.128  67.258  0.00  0.00    +0.042 A 
ATOM      5  C   UNL     1      -9.756  19.394  68.389  0.00  0.00    +0.003 A 
ATOM      6  C   UNL     1      -9.794  17.999  68.348  0.00  0.00    +0.004 A 
ATOM      7  C   UNL     1     -10.193  17.336  67.182  0.00  0.00    +0.048 A 
ENDROOT
BRANCH   1   9
ATOM      8  C   UNL     1     -11.016  16.094  64.831  0.00  0.00    +0.277 C 
ATOM      9  O   UNL     1     -10.956  17.514  64.861  0.00  0.00    -0.492 OA
ENDBRANCH   1   9
TORSDOF 1
ENDMDL