REMARK  Name = 
REMARK  17 active torsions:
REMARK  status: ('A' for Active; 'I' for Inactive)
REMARK    1  A    between atoms: C_1  and  N_2
REMARK    2  A    between atoms: C_1  and  C_18
REMARK    3  A    between atoms: N_2  and  C_3
REMARK    4  A    between atoms: N_2  and  C_5
REMARK    5  A    between atoms: C_3  and  C_4
REMARK    6  A    between atoms: C_5  and  C_6
REMARK    7  A    between atoms: C_5  and  C_12
REMARK    8  A    between atoms: C_6  and  C_7
REMARK    9  A    between atoms: C_6  and  C_11
REMARK   10  A    between atoms: C_7  and  C_8
REMARK   11  A    between atoms: C_8  and  C_9
REMARK   12  A    between atoms: C_8  and  C_10
REMARK   13  A    between atoms: C_12  and  C_13
REMARK   14  A    between atoms: C_12  and  C_14
REMARK   15  A    between atoms: C_14  and  C_15
REMARK   16  A    between atoms: C_15  and  C_16
REMARK   17  A    between atoms: C_15  and  C_17
REMARK                            x       y       z     vdW  Elec       q    Type
REMARK                         _______ _______ _______ _____ _____    ______ ____
ROOT
ATOM      1  C   UNL     1      -0.652  -0.097  -1.412  0.00  0.00    +0.062 C 
ENDROOT
BRANCH   1   2
ATOM      2  C   UNL     1      -1.358  -0.533  -2.829  0.00  0.00    +0.004 C 
ATOM      3  C   UNL     1      -1.053   0.420  -4.007  0.00  0.00    +0.009 C 
BRANCH   2   4
ATOM      4  C   UNL     1      -1.165  -1.972  -3.438  0.00  0.00    +0.007 C 
BRANCH   4   5
ATOM      5  C   UNL     1      -1.515  -3.234  -2.634  0.00  0.00    -0.017 C 
ATOM      6  C   UNL     1      -0.951  -4.464  -3.375  0.00  0.00    +0.007 C 
ATOM      7  C   UNL     1      -3.028  -3.392  -2.485  0.00  0.00    +0.007 C 
ENDBRANCH   4   5
ENDBRANCH   2   4
ENDBRANCH   1   2
BRANCH   1   8
ATOM      8  C   UNL     1      -1.383   1.299  -0.860  0.00  0.00    +0.004 C 
ATOM      9  C   UNL     1      -0.978   2.543  -1.663  0.00  0.00    +0.009 C 
BRANCH   8  10
ATOM     10  C   UNL     1      -1.182   1.612   0.657  0.00  0.00    +0.007 C 
BRANCH  10  11
ATOM     11  C   UNL     1      -1.861   2.814   1.373  0.00  0.00    -0.017 C 
ATOM     12  C   UNL     1      -1.285   2.893   2.802  0.00  0.00    +0.007 C 
ATOM     13  C   UNL     1      -3.386   2.798   1.409  0.00  0.00    +0.007 C 
ENDBRANCH  10  11
ENDBRANCH   8  10
ENDBRANCH   1   8
BRANCH   1  14
ATOM     14  N   UNL     1       0.878  -0.070  -1.357  0.00  0.00    -0.299 NA
BRANCH  14  15
ATOM     15  C   UNL     1       1.404  -0.182   0.027  0.00  0.00    +0.081 C 
ATOM     16  C   UNL     1       2.853   0.261   0.241  0.00  0.00    +0.020 C 
ENDBRANCH  14  15
BRANCH  14  17
ATOM     17  C   UNL     1       1.478  -1.139  -2.182  0.00  0.00    +0.081 C 
ATOM     18  C   UNL     1       2.993  -1.252  -2.337  0.00  0.00    +0.020 C 
ENDBRANCH  14  17
ENDBRANCH   1  14
TORSDOF 9
