REMARK  2 active torsions:
REMARK  status: ('A' for Active; 'I' for Inactive)
REMARK    1  A    between atoms: O1_2  and  C2_3 
REMARK    2  A    between atoms: C2_3  and  C4_5 
ROOT
HETATM    1  C4  UNL     1       0.471  -0.047   0.060  1.00  0.00     0.009 A 
HETATM    2  C5  UNL     1       0.984   1.197  -0.338  1.00  0.00     0.013 A 
HETATM    3  C6  UNL     1       2.361   1.436  -0.333  1.00  0.00     0.001 A 
HETATM    4  C7  UNL     1       3.245   0.433   0.065  1.00  0.00     0.003 A 
HETATM    5  C8  UNL     1       2.751  -0.810   0.455  1.00  0.00     0.043 A 
HETATM    6  C9  UNL     1       1.378  -1.040   0.447  1.00  0.00     0.125 A 
HETATM    7  F1  UNL     1       0.926  -2.248   0.815  1.00  0.00    -0.205 F 
ENDROOT
BRANCH   1   8
HETATM    8  C2  UNL     1      -1.011  -0.351   0.046  1.00  0.00     0.152 C 
HETATM    9  C3  UNL     1      -1.424  -0.934  -1.305  1.00  0.00     0.045 C 
BRANCH   8  10
HETATM   10  O1  UNL     1      -1.746   0.857   0.289  1.00  0.00    -0.386 OA
HETATM   11  C1  UNL     1      -2.977   0.630   0.962  1.00  0.00     0.202 C 
ENDBRANCH   8  10
ENDBRANCH   1   8
TORSDOF 2
