MODEL 1
REMARK VINA RESULT:      -8.1      0.000      0.000
REMARK  Name = 
REMARK  8 active torsions:
REMARK  status: ('A' for Active; 'I' for Inactive)
REMARK    1  A    between atoms: C_1  and  C_2
REMARK    2  A    between atoms: C_2  and  N_3
REMARK    3  A    between atoms: C_4  and  C_6
REMARK    4  A    between atoms: C_11  and  C_12
REMARK    5  A    between atoms: N_14  and  C_15
REMARK    6  A    between atoms: C_15  and  C_16
REMARK    7  A    between atoms: C_21  and  C_22
REMARK    8  A    between atoms: C_22  and  C_24
REMARK                            x       y       z     vdW  Elec       q    Type
REMARK                         _______ _______ _______ _____ _____    ______ ____
ROOT
ATOM      1  C   UNL     1     -11.648  12.875  69.032  0.00  0.00    +0.245 C 
ATOM      2  N   UNL     1     -10.423  13.426  68.741  0.00  0.00    -0.307 N 
ATOM      3  H   UNL     1     -10.070  14.207  69.289  0.00  0.00    +0.149 HD
ATOM      4  O   UNL     1     -12.168  12.068  68.260  0.00  0.00    -0.270 OA
ENDROOT
BRANCH   1   6
ATOM      5  C   UNL     1     -12.840  12.399  71.345  0.00  0.00    +0.049 A 
ATOM      6  C   UNL     1     -12.395  13.228  70.299  0.00  0.00    +0.049 A 
ATOM      7  C   UNL     1     -12.699  14.613  70.401  0.00  0.00    +0.014 A 
ATOM      8  C   UNL     1     -13.402  15.160  71.478  0.00  0.00    +0.001 A 
ATOM      9  C   UNL     1     -13.799  14.342  72.517  0.00  0.00    +0.001 A 
ATOM     10  C   UNL     1     -13.508  12.981  72.459  0.00  0.00    +0.014 A 
BRANCH   5  13
ATOM     11  N   UNL     1     -13.660  10.243  72.115  0.00  0.00    -0.312 N 
ATOM     12  H   UNL     1     -14.511  10.720  72.374  0.00  0.00    +0.149 HD
ATOM     13  C   UNL     1     -12.671  10.916  71.421  0.00  0.00    +0.245 C 
ATOM     14  O   UNL     1     -11.701  10.362  70.919  0.00  0.00    -0.270 OA
BRANCH  11  16
ATOM     15  C   UNL     1     -14.708   8.059  71.751  0.00  0.00    +0.024 C 
ATOM     16  C   UNL     1     -13.590   8.827  72.428  0.00  0.00    +0.101 C 
ENDBRANCH  11  16
ENDBRANCH   5  13
ENDBRANCH   1   6
BRANCH   2  17
ATOM     17  C   UNL     1      -9.705  13.112  67.510  0.00  0.00    +0.140 C 
BRANCH  17  18
ATOM     18  C   UNL     1     -10.186  13.878  66.285  0.00  0.00    -0.024 A 
ATOM     19  C   UNL     1      -9.928  15.263  66.099  0.00  0.00    -0.005 A 
ATOM     20  C   UNL     1     -10.621  15.954  65.080  0.00  0.00    +0.007 A 
ATOM     21  C   UNL     1     -11.474  15.289  64.203  0.00  0.00    +0.000 A 
ATOM     22  C   UNL     1     -11.646  13.918  64.319  0.00  0.00    +0.000 A 
ATOM     23  C   UNL     1     -11.031  13.228  65.363  0.00  0.00    +0.005 A 
BRANCH  19  24
ATOM     24  C   UNL     1      -8.893  16.065  66.897  0.00  0.00    +0.229 C 
ATOM     25  F   UNL     1      -7.628  15.879  66.391  0.00  0.00    -0.235 F 
BRANCH  24  26
ATOM     26  C   UNL     1      -9.193  17.540  66.991  0.00  0.00    +0.026 A 
ATOM     27  C   UNL     1     -10.270  17.989  67.755  0.00  0.00    +0.130 A 
ATOM     28  F   UNL     1     -10.995  17.115  68.467  0.00  0.00    -0.205 F 
ATOM     29  C   UNL     1     -10.624  19.333  67.789  0.00  0.00    +0.039 A 
ATOM     30  C   UNL     1      -9.872  20.260  67.074  0.00  0.00    +0.003 A 
ATOM     31  C   UNL     1      -8.743  19.843  66.368  0.00  0.00    +0.001 A 
ATOM     32  C   UNL     1      -8.398  18.491  66.333  0.00  0.00    +0.009 A 
ENDBRANCH  24  26
ENDBRANCH  19  24
ENDBRANCH  17  18
ENDBRANCH   2  17
TORSDOF 7
ENDMDL
