MODEL 1
REMARK VINA RESULT:     -5.77      0.000      0.000
REMARK  2 active torsions:
REMARK  status: ('A' for Active; 'I' for Inactive)
REMARK    1  A    between atoms: O1_2  and  C2_3 
REMARK    2  A    between atoms: C2_3  and  C4_5 
ROOT
HETATM    1  C4  UNL     1     -13.041  13.123  71.259  1.00  0.00     0.009 A 
HETATM    2  C5  UNL     1     -12.420  13.819  70.211  1.00  0.00     0.013 A 
HETATM    3  C6  UNL     1     -11.642  13.143  69.267  1.00  0.00     0.001 A 
HETATM    4  C7  UNL     1     -11.476  11.761  69.356  1.00  0.00     0.003 A 
HETATM    5  C8  UNL     1     -12.093  11.055  70.386  1.00  0.00     0.043 A 
HETATM    6  C9  UNL     1     -12.868  11.735  71.322  1.00  0.00     0.125 A 
HETATM    7  F1  UNL     1     -13.462  11.033  72.298  1.00  0.00    -0.205 F 
ENDROOT
BRANCH   1   8
HETATM    8  C2  UNL     1     -13.910  13.816  72.285  1.00  0.00     0.152 C 
HETATM    9  C3  UNL     1     -14.731  14.926  71.629  1.00  0.00     0.045 C 
BRANCH   8  10
HETATM   10  O1  UNL     1     -13.079  14.379  73.310  1.00  0.00    -0.386 OA
HETATM   11  C1  UNL     1     -13.131  15.799  73.347  1.00  0.00     0.202 C 
ENDBRANCH   8  10
ENDBRANCH   1   8
TORSDOF 2
ENDMDL
