MODEL 1
REMARK VINA RESULT:      -4.6      0.000      0.000
REMARK  Name = 
REMARK  17 active torsions:
REMARK  status: ('A' for Active; 'I' for Inactive)
REMARK    1  A    between atoms: C_1  and  N_2
REMARK    2  A    between atoms: C_1  and  C_18
REMARK    3  A    between atoms: N_2  and  C_3
REMARK    4  A    between atoms: N_2  and  C_5
REMARK    5  A    between atoms: C_3  and  C_4
REMARK    6  A    between atoms: C_5  and  C_6
REMARK    7  A    between atoms: C_5  and  C_12
REMARK    8  A    between atoms: C_6  and  C_7
REMARK    9  A    between atoms: C_6  and  C_11
REMARK   10  A    between atoms: C_7  and  C_8
REMARK   11  A    between atoms: C_8  and  C_9
REMARK   12  A    between atoms: C_8  and  C_10
REMARK   13  A    between atoms: C_12  and  C_13
REMARK   14  A    between atoms: C_12  and  C_14
REMARK   15  A    between atoms: C_14  and  C_15
REMARK   16  A    between atoms: C_15  and  C_16
REMARK   17  A    between atoms: C_15  and  C_17
REMARK                            x       y       z     vdW  Elec       q    Type
REMARK                         _______ _______ _______ _____ _____    ______ ____
ROOT
ATOM      1  C   UNL     1     -11.461  14.902  67.664  0.00  0.00    +0.062 C 
ENDROOT
BRANCH   1   2
ATOM      2  C   UNL     1     -10.193  15.907  67.378  0.00  0.00    +0.004 C 
ATOM      3  C   UNL     1     -10.366  16.804  66.131  0.00  0.00    +0.009 C 
BRANCH   2   4
ATOM      4  C   UNL     1      -9.651  16.886  68.485  0.00  0.00    +0.007 C 
BRANCH   4   5
ATOM      5  C   UNL     1      -9.134  18.289  68.128  0.00  0.00    -0.017 C 
ATOM      6  C   UNL     1      -7.655  18.393  68.553  0.00  0.00    +0.007 C 
ATOM      7  C   UNL     1      -9.937  19.372  68.847  0.00  0.00    +0.007 C 
ENDBRANCH   4   5
ENDBRANCH   2   4
ENDBRANCH   1   2
BRANCH   1   8
ATOM      8  C   UNL     1     -11.512  14.561  69.297  0.00  0.00    +0.004 C 
ATOM      9  C   UNL     1     -11.849  13.092  69.590  0.00  0.00    +0.009 C 
BRANCH   8  10
ATOM     10  C   UNL     1     -12.469  15.459  70.145  0.00  0.00    +0.007 C 
BRANCH  10  11
ATOM     11  C   UNL     1     -12.772  15.194  71.647  0.00  0.00    -0.017 C 
ATOM     12  C   UNL     1     -14.305  15.204  71.823  0.00  0.00    +0.007 C 
ATOM     13  C   UNL     1     -12.112  16.143  72.641  0.00  0.00    +0.007 C 
ENDBRANCH  10  11
ENDBRANCH   8  10
ENDBRANCH   1   8
BRANCH   1  14
ATOM     14  N   UNL     1     -11.616  13.676  66.760  0.00  0.00    -0.299 NA
BRANCH  14  15
ATOM     15  C   UNL     1     -12.615  13.882  65.681  0.00  0.00    +0.081 C 
ATOM     16  C   UNL     1     -12.069  13.954  64.253  0.00  0.00    +0.020 C 
ENDBRANCH  14  15
BRANCH  14  17
ATOM     17  C   UNL     1     -10.332  13.276  66.148  0.00  0.00    +0.081 C 
ATOM     18  C   UNL     1      -9.445  12.221  66.807  0.00  0.00    +0.020 C 
ENDBRANCH  14  17
ENDBRANCH   1  14
TORSDOF 9
ENDMDL
