REMARK VINA RESULT:      -7.9      3.940      6.566
REMARK  12 active torsions:
REMARK  status: ('A' for Active; 'I' for Inactive)
REMARK    1  A    between atoms: N2_3  and  C2_4 
REMARK    2  A    between atoms: C2_4  and  C20_13 
REMARK    3  A    between atoms: C3_5  and  C31_20 
REMARK    4  A    between atoms: C4_6  and  O4_7 
REMARK    5  A    between atoms: C5_8  and  O5_9 
REMARK    6  A    between atoms: C6_10  and  C61_27 
REMARK    7  A    between atoms: N7_11  and  C7_12 
REMARK    8  A    between atoms: C7_12  and  C70_34 
REMARK    9  A    between atoms: C28_17  and  N29_18 
REMARK   10  A    between atoms: C31_20  and  C32_21 
REMARK   11  A    between atoms: C61_27  and  C62_28 
REMARK   12  A    between atoms: C72_36  and  N79_37 
ROOT
ATOM      1  C1  DMQ d          -4.115  17.514  25.942  0.00  0.00     0.322 C 
ATOM      2  O1  DMQ d          -3.726  17.122  27.024  0.00  0.00    -0.247 OA
ATOM      3  N2  DMQ d          -5.309  18.120  25.958  0.00  0.00    -0.322 N 
ATOM      4  C3  DMQ d          -6.158  18.229  24.737  0.00  0.00     0.124 C 
ATOM      5  C4  DMQ d          -5.664  19.075  23.604  0.00  0.00     0.172 C 
ATOM      6  C5  DMQ d          -4.513  18.487  22.825  0.00  0.00     0.172 C 
ATOM      7  C6  DMQ d          -3.260  18.251  23.647  0.00  0.00     0.124 C 
ATOM      8  N7  DMQ d          -3.366  17.305  24.810  0.00  0.00    -0.322 N 
ENDROOT
BRANCH   3   9
ATOM      9  C2  DMQ d          -5.859  18.521  27.294  0.00  0.00     0.166 C 
BRANCH   9  10
ATOM     10  C20 DMQ d          -6.965  17.654  27.809  0.00  0.00    -0.038 A 
ATOM     11  C29 DMQ d          -8.125  18.220  28.349  0.00  0.00     0.037 A 
ATOM     12  C28 DMQ d          -9.117  17.370  28.883  0.00  0.00     0.026 A 
ATOM     13  C23 DMQ d          -8.967  15.962  28.837  0.00  0.00     0.029 A 
ATOM     14  C22 DMQ d          -7.814  15.394  28.287  0.00  0.00     0.003 A 
ATOM     15  C21 DMQ d          -6.824  16.256  27.787  0.00  0.00     0.009 A 
BRANCH  12  16
ATOM     16  N29 DMQ d         -10.207  17.909  29.620  0.00  0.00    -0.399 N 
ATOM     17  H14 DMQ d         -11.154  17.908  29.214  0.00  0.00     0.156 HD
ATOM     18  H15 DMQ d         -10.050  18.301  30.559  0.00  0.00     0.156 HD
ENDBRANCH  12  16
ENDBRANCH   9  10
ENDBRANCH   3   9
BRANCH   4  19
ATOM     19  C31 DMQ d          -6.724  16.847  24.360  0.00  0.00     0.066 C 
BRANCH  19  20
ATOM     20  C32 DMQ d          -8.187  16.797  24.776  0.00  0.00    -0.056 A 
ATOM     21  C37 DMQ d          -8.868  18.006  25.082  0.00  0.00     0.007 A 
ATOM     22  C36 DMQ d         -10.210  17.966  25.510  0.00  0.00     0.001 A 
ATOM     23  C35 DMQ d         -10.863  16.716  25.615  0.00  0.00     0.000 A 
ATOM     24  C34 DMQ d         -10.202  15.515  25.310  0.00  0.00     0.001 A 
ATOM     25  C33 DMQ d          -8.864  15.558  24.899  0.00  0.00     0.007 A 
ENDBRANCH  19  20
ENDBRANCH   4  19
BRANCH   8  26
ATOM     26  C7  DMQ d          -2.397  16.178  24.806  0.00  0.00     0.166 C 
BRANCH  26  27
ATOM     27  C70 DMQ d          -1.388  16.073  23.682  0.00  0.00    -0.038 A 
ATOM     28  C79 DMQ d          -1.816  15.955  22.337  0.00  0.00     0.009 A 
ATOM     29  C78 DMQ d          -0.870  15.753  21.312  0.00  0.00     0.003 A 
ATOM     30  C77 DMQ d           0.509  15.660  21.644  0.00  0.00     0.029 A 
ATOM     31  C72 DMQ d           0.937  15.786  22.981  0.00  0.00     0.026 A 
ATOM     32  C71 DMQ d          -0.012  16.002  23.997  0.00  0.00     0.037 A 
BRANCH  31  33
ATOM     33  N79 DMQ d           2.326  15.672  23.296  0.00  0.00    -0.399 N 
ATOM     34  H32 DMQ d           3.035  15.994  22.621  0.00  0.00     0.156 HD
ATOM     35  H33 DMQ d           2.618  15.269  24.197  0.00  0.00     0.156 HD
ENDBRANCH  31  33
ENDBRANCH  26  27
ENDBRANCH   8  26
BRANCH   5  36
ATOM     36  O4  DMQ d          -6.801  19.245  22.817  0.00  0.00    -0.391 OA
ATOM     37  H5  DMQ d          -6.776  20.101  22.406  0.00  0.00     0.210 HD
ENDBRANCH   5  36
BRANCH   7  38
ATOM     38  C61 DMQ d          -2.457  19.527  24.094  0.00  0.00     0.066 C 
BRANCH  38  39
ATOM     39  C62 DMQ d          -0.998  19.542  23.642  0.00  0.00    -0.056 A 
ATOM     40  C67 DMQ d           0.049  19.594  24.601  0.00  0.00     0.007 A 
ATOM     41  C66 DMQ d           1.399  19.515  24.193  0.00  0.00     0.001 A 
ATOM     42  C65 DMQ d           1.691  19.387  22.815  0.00  0.00     0.000 A 
ATOM     43  C64 DMQ d           0.659  19.347  21.855  0.00  0.00     0.001 A 
ATOM     44  C63 DMQ d          -0.680  19.429  22.273  0.00  0.00     0.007 A 
ENDBRANCH  38  39
ENDBRANCH   7  38
BRANCH   6  45
ATOM     45  O5  DMQ d          -4.192  19.417  21.856  0.00  0.00    -0.391 OA
ATOM     46  H7  DMQ d          -4.803  19.343  21.133  0.00  0.00     0.210 HD
ENDBRANCH   6  45
TORSDOF 12
