REMARK VINA RESULT:      -7.9      5.019      7.713
REMARK  12 active torsions:
REMARK  status: ('A' for Active; 'I' for Inactive)
REMARK    1  A    between atoms: N2_3  and  C2_4 
REMARK    2  A    between atoms: C2_4  and  C20_13 
REMARK    3  A    between atoms: C3_5  and  C31_20 
REMARK    4  A    between atoms: C4_6  and  O4_7 
REMARK    5  A    between atoms: C5_8  and  O5_9 
REMARK    6  A    between atoms: C6_10  and  C61_27 
REMARK    7  A    between atoms: N7_11  and  C7_12 
REMARK    8  A    between atoms: C7_12  and  C70_34 
REMARK    9  A    between atoms: C28_17  and  N29_18 
REMARK   10  A    between atoms: C31_20  and  C32_21 
REMARK   11  A    between atoms: C61_27  and  C62_28 
REMARK   12  A    between atoms: C72_36  and  N79_37 
ROOT
ATOM      1  C1  DMQ d         -13.149  12.402  31.854  0.00  0.00     0.322 C 
ATOM      2  O1  DMQ d         -13.278  11.612  30.939  0.00  0.00    -0.247 OA
ATOM      3  N2  DMQ d         -13.155  11.854  33.076  0.00  0.00    -0.322 N 
ATOM      4  C3  DMQ d         -13.494  12.644  34.296  0.00  0.00     0.124 C 
ATOM      5  C4  DMQ d         -12.561  13.739  34.713  0.00  0.00     0.172 C 
ATOM      6  C5  DMQ d         -12.591  14.967  33.836  0.00  0.00     0.172 C 
ATOM      7  C6  DMQ d         -12.197  14.713  32.393  0.00  0.00     0.124 C 
ATOM      8  N7  DMQ d         -13.039  13.748  31.608  0.00  0.00    -0.322 N 
ENDROOT
BRANCH   3   9
ATOM      9  C2  DMQ d         -12.996  10.366  33.165  0.00  0.00     0.166 C 
BRANCH   9  10
ATOM     10  C20 DMQ d         -13.114   9.798  34.544  0.00  0.00    -0.038 A 
ATOM     11  C29 DMQ d         -12.348  10.310  35.597  0.00  0.00     0.037 A 
ATOM     12  C28 DMQ d         -12.440   9.706  36.868  0.00  0.00     0.026 A 
ATOM     13  C23 DMQ d         -13.327   8.624  37.094  0.00  0.00     0.029 A 
ATOM     14  C22 DMQ d         -14.102   8.118  36.047  0.00  0.00     0.003 A 
ATOM     15  C21 DMQ d         -13.976   8.713  34.780  0.00  0.00     0.009 A 
BRANCH  12  16
ATOM     16  N29 DMQ d         -11.533  10.063  37.903  0.00  0.00    -0.399 N 
ATOM     17  H14 DMQ d         -11.878  10.209  38.862  0.00  0.00     0.156 HD
ATOM     18  H15 DMQ d         -10.531  10.174  37.693  0.00  0.00     0.156 HD
ENDBRANCH  12  16
ENDBRANCH   9  10
ENDBRANCH   3   9
BRANCH   4  19
ATOM     19  C31 DMQ d         -14.996  12.985  34.305  0.00  0.00     0.066 C 
BRANCH  19  20
ATOM     20  C32 DMQ d         -15.714  11.972  35.185  0.00  0.00    -0.056 A 
ATOM     21  C37 DMQ d         -16.655  11.083  34.599  0.00  0.00     0.007 A 
ATOM     22  C36 DMQ d         -17.357  10.170  35.412  0.00  0.00     0.001 A 
ATOM     23  C35 DMQ d         -17.100  10.146  36.802  0.00  0.00     0.000 A 
ATOM     24  C34 DMQ d         -16.168  11.016  37.391  0.00  0.00     0.001 A 
ATOM     25  C33 DMQ d         -15.484  11.932  36.583  0.00  0.00     0.007 A 
ENDBRANCH  19  20
ENDBRANCH   4  19
BRANCH   8  26
ATOM     26  C7  DMQ d         -13.600  14.279  30.337  0.00  0.00     0.166 C 
BRANCH  26  27
ATOM     27  C70 DMQ d         -12.665  14.590  29.188  0.00  0.00    -0.038 A 
ATOM     28  C79 DMQ d         -11.863  13.574  28.615  0.00  0.00     0.009 A 
ATOM     29  C78 DMQ d         -10.920  13.898  27.617  0.00  0.00     0.003 A 
ATOM     30  C77 DMQ d         -10.780  15.250  27.204  0.00  0.00     0.029 A 
ATOM     31  C72 DMQ d         -11.583  16.262  27.768  0.00  0.00     0.026 A 
ATOM     32  C71 DMQ d         -12.531  15.928  28.753  0.00  0.00     0.037 A 
BRANCH  31  33
ATOM     33  N79 DMQ d         -11.413  17.618  27.351  0.00  0.00    -0.399 N 
ATOM     34  H32 DMQ d         -12.161  18.307  27.520  0.00  0.00     0.156 HD
ATOM     35  H33 DMQ d         -10.543  17.907  26.882  0.00  0.00     0.156 HD
ENDBRANCH  31  33
ENDBRANCH  26  27
ENDBRANCH   8  26
BRANCH   5  36
ATOM     36  O4  DMQ d         -12.961  14.015  36.019  0.00  0.00    -0.391 OA
ATOM     37  H5  DMQ d         -13.435  13.269  36.367  0.00  0.00     0.210 HD
ENDBRANCH   5  36
BRANCH   7  38
ATOM     38  C61 DMQ d         -10.678  14.411  32.119  0.00  0.00     0.066 C 
BRANCH  38  39
ATOM     39  C62 DMQ d          -9.982  15.441  31.231  0.00  0.00    -0.056 A 
ATOM     40  C67 DMQ d         -10.360  16.810  31.289  0.00  0.00     0.007 A 
ATOM     41  C66 DMQ d          -9.658  17.780  30.539  0.00  0.00     0.001 A 
ATOM     42  C65 DMQ d          -8.576  17.365  29.728  0.00  0.00     0.000 A 
ATOM     43  C64 DMQ d          -8.202  16.009  29.654  0.00  0.00     0.001 A 
ATOM     44  C63 DMQ d          -8.909  15.052  30.403  0.00  0.00     0.007 A 
ENDBRANCH  38  39
ENDBRANCH   7  38
BRANCH   6  45
ATOM     45  O5  DMQ d         -11.656  15.836  34.363  0.00  0.00    -0.391 OA
ATOM     46  H7  DMQ d         -11.086  16.146  33.668  0.00  0.00     0.210 HD
ENDBRANCH   6  45
TORSDOF 12
