REMARK VINA RESULT:      -6.7      3.739      7.036
REMARK  12 active torsions:
REMARK  status: ('A' for Active; 'I' for Inactive)
REMARK    1  A    between atoms: N2_3  and  C2_4 
REMARK    2  A    between atoms: C2_4  and  C20_13 
REMARK    3  A    between atoms: C3_5  and  C31_20 
REMARK    4  A    between atoms: C4_6  and  O4_7 
REMARK    5  A    between atoms: C5_8  and  O5_9 
REMARK    6  A    between atoms: C6_10  and  C61_27 
REMARK    7  A    between atoms: N7_11  and  C7_12 
REMARK    8  A    between atoms: C7_12  and  C70_34 
REMARK    9  A    between atoms: C28_17  and  N29_18 
REMARK   10  A    between atoms: C31_20  and  C32_21 
REMARK   11  A    between atoms: C61_27  and  C62_28 
REMARK   12  A    between atoms: C72_36  and  N79_37 
ROOT
ATOM      1  C1  DMQ d          -4.323  17.663  25.548  0.00  0.00     0.322 C 
ATOM      2  O1  DMQ d          -4.063  17.392  26.703  0.00  0.00    -0.247 OA
ATOM      3  N2  DMQ d          -5.542  18.183  25.351  0.00  0.00    -0.322 N 
ATOM      4  C3  DMQ d          -6.221  18.129  24.024  0.00  0.00     0.124 C 
ATOM      5  C4  DMQ d          -5.627  18.909  22.891  0.00  0.00     0.172 C 
ATOM      6  C5  DMQ d          -4.349  18.337  22.328  0.00  0.00     0.172 C 
ATOM      7  C6  DMQ d          -3.208  18.259  23.325  0.00  0.00     0.124 C 
ATOM      8  N7  DMQ d          -3.417  17.411  24.548  0.00  0.00    -0.322 N 
ENDROOT
BRANCH   3   9
ATOM      9  C2  DMQ d          -6.291  18.657  26.560  0.00  0.00     0.166 C 
BRANCH   9  10
ATOM     10  C20 DMQ d          -7.488  17.837  26.925  0.00  0.00    -0.038 A 
ATOM     11  C29 DMQ d          -7.346  16.507  27.336  0.00  0.00     0.037 A 
ATOM     12  C28 DMQ d          -8.503  15.747  27.609  0.00  0.00     0.026 A 
ATOM     13  C23 DMQ d          -9.791  16.328  27.513  0.00  0.00     0.029 A 
ATOM     14  C22 DMQ d          -9.935  17.660  27.113  0.00  0.00     0.003 A 
ATOM     15  C21 DMQ d          -8.774  18.393  26.817  0.00  0.00     0.009 A 
BRANCH  12  16
ATOM     16  N29 DMQ d          -8.408  14.346  27.829  0.00  0.00    -0.399 N 
ATOM     17  H14 DMQ d          -7.903  13.752  27.156  0.00  0.00     0.156 HD
ATOM     18  H15 DMQ d          -8.845  13.924  28.660  0.00  0.00     0.156 HD
ENDBRANCH  12  16
ENDBRANCH   9  10
ENDBRANCH   3   9
BRANCH   4  19
ATOM     19  C31 DMQ d          -6.650  16.684  23.708  0.00  0.00     0.066 C 
BRANCH  19  20
ATOM     20  C32 DMQ d          -8.077  16.711  23.179  0.00  0.00    -0.056 A 
ATOM     21  C37 DMQ d          -9.144  16.317  24.030  0.00  0.00     0.007 A 
ATOM     22  C36 DMQ d         -10.465  16.298  23.537  0.00  0.00     0.001 A 
ATOM     23  C35 DMQ d         -10.706  16.686  22.199  0.00  0.00     0.000 A 
ATOM     24  C34 DMQ d          -9.660  17.083  21.350  0.00  0.00     0.001 A 
ATOM     25  C33 DMQ d          -8.348  17.087  21.839  0.00  0.00     0.007 A 
ENDBRANCH  19  20
ENDBRANCH   4  19
BRANCH   8  26
ATOM     26  C7  DMQ d          -2.393  16.357  24.775  0.00  0.00     0.166 C 
BRANCH  26  27
ATOM     27  C70 DMQ d          -1.335  16.113  23.720  0.00  0.00    -0.038 A 
ATOM     28  C79 DMQ d           0.041  16.205  24.043  0.00  0.00     0.009 A 
ATOM     29  C78 DMQ d           1.013  16.079  23.030  0.00  0.00     0.003 A 
ATOM     30  C77 DMQ d           0.597  15.870  21.687  0.00  0.00     0.029 A 
ATOM     31  C72 DMQ d          -0.772  15.770  21.366  0.00  0.00     0.026 A 
ATOM     32  C71 DMQ d          -1.736  15.883  22.385  0.00  0.00     0.037 A 
BRANCH  31  33
ATOM     33  N79 DMQ d          -1.169  15.578  20.007  0.00  0.00    -0.399 N 
ATOM     34  H32 DMQ d          -0.489  15.719  19.246  0.00  0.00     0.156 HD
ATOM     35  H33 DMQ d          -2.136  15.297  19.788  0.00  0.00     0.156 HD
ENDBRANCH  31  33
ENDBRANCH  26  27
ENDBRANCH   8  26
BRANCH   5  36
ATOM     36  O4  DMQ d          -6.654  18.931  21.950  0.00  0.00    -0.391 OA
ATOM     37  H5  DMQ d          -7.038  19.800  21.923  0.00  0.00     0.210 HD
ENDBRANCH   5  36
BRANCH   7  38
ATOM     38  C61 DMQ d          -2.548  19.622  23.751  0.00  0.00     0.066 C 
BRANCH  38  39
ATOM     39  C62 DMQ d          -1.022  19.633  23.675  0.00  0.00    -0.056 A 
ATOM     40  C67 DMQ d          -0.367  19.552  22.417  0.00  0.00     0.007 A 
ATOM     41  C66 DMQ d           1.040  19.655  22.333  0.00  0.00     0.001 A 
ATOM     42  C65 DMQ d           1.783  19.837  23.522  0.00  0.00     0.000 A 
ATOM     43  C64 DMQ d           1.143  19.906  24.776  0.00  0.00     0.001 A 
ATOM     44  C63 DMQ d          -0.256  19.800  24.847  0.00  0.00     0.007 A 
ENDBRANCH  38  39
ENDBRANCH   7  38
BRANCH   6  45
ATOM     45  O5  DMQ d          -3.952  19.202  21.327  0.00  0.00    -0.391 OA
ATOM     46  H7  DMQ d          -4.230  20.085  21.544  0.00  0.00     0.210 HD
ENDBRANCH   6  45
TORSDOF 12
