REMARK VINA RESULT:      -6.4      6.700     11.912
REMARK  12 active torsions:
REMARK  status: ('A' for Active; 'I' for Inactive)
REMARK    1  A    between atoms: N2_3  and  C2_4 
REMARK    2  A    between atoms: C2_4  and  C20_13 
REMARK    3  A    between atoms: C3_5  and  C31_20 
REMARK    4  A    between atoms: C4_6  and  O4_7 
REMARK    5  A    between atoms: C5_8  and  O5_9 
REMARK    6  A    between atoms: C6_10  and  C61_27 
REMARK    7  A    between atoms: N7_11  and  C7_12 
REMARK    8  A    between atoms: C7_12  and  C70_34 
REMARK    9  A    between atoms: C28_17  and  N29_18 
REMARK   10  A    between atoms: C31_20  and  C32_21 
REMARK   11  A    between atoms: C61_27  and  C62_28 
REMARK   12  A    between atoms: C72_36  and  N79_37 
ROOT
ATOM      1  C1  DMQ d         -15.165  10.807  33.407  0.00  0.00     0.322 C 
ATOM      2  O1  DMQ d         -15.987  11.504  33.967  0.00  0.00    -0.247 OA
ATOM      3  N2  DMQ d         -15.549   9.541  33.195  0.00  0.00    -0.322 N 
ATOM      4  C3  DMQ d         -14.566   8.440  32.985  0.00  0.00     0.124 C 
ATOM      5  C4  DMQ d         -13.725   8.467  31.745  0.00  0.00     0.172 C 
ATOM      6  C5  DMQ d         -12.642   9.518  31.734  0.00  0.00     0.172 C 
ATOM      7  C6  DMQ d         -13.155  10.943  31.832  0.00  0.00     0.124 C 
ATOM      8  N7  DMQ d         -13.936  11.312  33.061  0.00  0.00    -0.322 N 
ENDROOT
BRANCH   3   9
ATOM      9  C2  DMQ d         -17.005   9.226  33.368  0.00  0.00     0.166 C 
BRANCH   9  10
ATOM     10  C20 DMQ d         -17.487   8.027  32.612  0.00  0.00    -0.038 A 
ATOM     11  C29 DMQ d         -17.799   8.118  31.251  0.00  0.00     0.037 A 
ATOM     12  C28 DMQ d         -18.311   6.982  30.589  0.00  0.00     0.026 A 
ATOM     13  C23 DMQ d         -18.468   5.752  31.276  0.00  0.00     0.029 A 
ATOM     14  C22 DMQ d         -18.145   5.656  32.632  0.00  0.00     0.003 A 
ATOM     15  C21 DMQ d         -17.664   6.805  33.283  0.00  0.00     0.009 A 
BRANCH  12  16
ATOM     16  N29 DMQ d         -18.830   7.090  29.270  0.00  0.00    -0.399 N 
ATOM     17  H14 DMQ d         -18.620   6.361  28.573  0.00  0.00     0.156 HD
ATOM     18  H15 DMQ d         -19.416   7.896  29.012  0.00  0.00     0.156 HD
ENDBRANCH  12  16
ENDBRANCH   9  10
ENDBRANCH   3   9
BRANCH   4  19
ATOM     19  C31 DMQ d         -13.830   8.128  34.301  0.00  0.00     0.066 C 
BRANCH  19  20
ATOM     20  C32 DMQ d         -14.545   6.975  34.991  0.00  0.00    -0.056 A 
ATOM     21  C37 DMQ d         -14.363   5.651  34.507  0.00  0.00     0.007 A 
ATOM     22  C36 DMQ d         -15.054   4.582  35.112  0.00  0.00     0.001 A 
ATOM     23  C35 DMQ d         -15.913   4.847  36.203  0.00  0.00     0.000 A 
ATOM     24  C34 DMQ d         -16.097   6.150  36.693  0.00  0.00     0.001 A 
ATOM     25  C33 DMQ d         -15.419   7.211  36.081  0.00  0.00     0.007 A 
ENDBRANCH  19  20
ENDBRANCH   4  19
BRANCH   8  26
ATOM     26  C7  DMQ d         -13.419  12.483  33.818  0.00  0.00     0.166 C 
BRANCH  26  27
ATOM     27  C70 DMQ d         -13.043  12.316  35.274  0.00  0.00    -0.038 A 
ATOM     28  C79 DMQ d         -12.335  11.170  35.711  0.00  0.00     0.009 A 
ATOM     29  C78 DMQ d         -12.084  10.977  37.085  0.00  0.00     0.003 A 
ATOM     30  C77 DMQ d         -12.556  11.937  38.021  0.00  0.00     0.029 A 
ATOM     31  C72 DMQ d         -13.253  13.082  37.587  0.00  0.00     0.026 A 
ATOM     32  C71 DMQ d         -13.488  13.275  36.213  0.00  0.00     0.037 A 
BRANCH  31  33
ATOM     33  N79 DMQ d         -13.735  14.026  38.547  0.00  0.00    -0.399 N 
ATOM     34  H32 DMQ d         -13.549  13.881  39.550  0.00  0.00     0.156 HD
ATOM     35  H33 DMQ d         -14.267  14.851  38.235  0.00  0.00     0.156 HD
ENDBRANCH  31  33
ENDBRANCH  26  27
ENDBRANCH   8  26
BRANCH   5  36
ATOM     36  O4  DMQ d         -13.207   7.175  31.685  0.00  0.00    -0.391 OA
ATOM     37  H5  DMQ d         -13.001   6.960  30.783  0.00  0.00     0.210 HD
ENDBRANCH   5  36
BRANCH   7  38
ATOM     38  C61 DMQ d         -13.887  11.519  30.565  0.00  0.00     0.066 C 
BRANCH  38  39
ATOM     39  C62 DMQ d         -13.008  12.395  29.674  0.00  0.00    -0.056 A 
ATOM     40  C67 DMQ d         -12.123  13.345  30.252  0.00  0.00     0.007 A 
ATOM     41  C66 DMQ d         -11.242  14.091  29.439  0.00  0.00     0.001 A 
ATOM     42  C65 DMQ d         -11.258  13.879  28.041  0.00  0.00     0.000 A 
ATOM     43  C64 DMQ d         -12.140  12.948  27.457  0.00  0.00     0.001 A 
ATOM     44  C63 DMQ d         -13.014  12.213  28.276  0.00  0.00     0.007 A 
ENDBRANCH  38  39
ENDBRANCH   7  38
BRANCH   6  45
ATOM     45  O5  DMQ d         -12.007   9.400  30.514  0.00  0.00    -0.391 OA
ATOM     46  H7  DMQ d         -11.342   8.723  30.568  0.00  0.00     0.210 HD
ENDBRANCH   6  45
TORSDOF 12
