REMARK VINA RESULT:      -6.3      3.035      9.711
REMARK  12 active torsions:
REMARK  status: ('A' for Active; 'I' for Inactive)
REMARK    1  A    between atoms: N2_3  and  C2_4 
REMARK    2  A    between atoms: C2_4  and  C20_13 
REMARK    3  A    between atoms: C3_5  and  C31_20 
REMARK    4  A    between atoms: C4_6  and  O4_7 
REMARK    5  A    between atoms: C5_8  and  O5_9 
REMARK    6  A    between atoms: C6_10  and  C61_27 
REMARK    7  A    between atoms: N7_11  and  C7_12 
REMARK    8  A    between atoms: C7_12  and  C70_34 
REMARK    9  A    between atoms: C28_17  and  N29_18 
REMARK   10  A    between atoms: C31_20  and  C32_21 
REMARK   11  A    between atoms: C61_27  and  C62_28 
REMARK   12  A    between atoms: C72_36  and  N79_37 
ROOT
ATOM      1  C1  DMQ d         -10.401  14.751  31.540  0.00  0.00     0.322 C 
ATOM      2  O1  DMQ d          -9.356  14.670  32.155  0.00  0.00    -0.247 OA
ATOM      3  N2  DMQ d         -10.265  14.896  30.215  0.00  0.00    -0.322 N 
ATOM      4  C3  DMQ d         -11.344  15.483  29.368  0.00  0.00     0.124 C 
ATOM      5  C4  DMQ d         -12.627  14.722  29.226  0.00  0.00     0.172 C 
ATOM      6  C5  DMQ d         -13.506  14.724  30.453  0.00  0.00     0.172 C 
ATOM      7  C6  DMQ d         -12.868  14.094  31.678  0.00  0.00     0.124 C 
ATOM      8  N7  DMQ d         -11.605  14.721  32.198  0.00  0.00    -0.322 N 
ENDROOT
BRANCH   3   9
ATOM      9  C2  DMQ d          -8.913  14.625  29.628  0.00  0.00     0.166 C 
BRANCH   9  10
ATOM     10  C20 DMQ d          -8.789  14.914  28.165  0.00  0.00    -0.038 A 
ATOM     11  C29 DMQ d          -7.657  15.563  27.658  0.00  0.00     0.037 A 
ATOM     12  C28 DMQ d          -7.606  15.876  26.283  0.00  0.00     0.026 A 
ATOM     13  C23 DMQ d          -8.661  15.501  25.415  0.00  0.00     0.029 A 
ATOM     14  C22 DMQ d          -9.787  14.842  25.917  0.00  0.00     0.003 A 
ATOM     15  C21 DMQ d          -9.834  14.565  27.294  0.00  0.00     0.009 A 
BRANCH  12  16
ATOM     16  N29 DMQ d          -6.575  16.710  25.772  0.00  0.00    -0.399 N 
ATOM     17  H14 DMQ d          -6.562  16.960  24.773  0.00  0.00     0.156 HD
ATOM     18  H15 DMQ d          -5.840  17.064  26.401  0.00  0.00     0.156 HD
ENDBRANCH  12  16
ENDBRANCH   9  10
ENDBRANCH   3   9
BRANCH   4  19
ATOM     19  C31 DMQ d         -11.472  16.992  29.646  0.00  0.00     0.066 C 
BRANCH  19  20
ATOM     20  C32 DMQ d         -10.454  17.728  28.786  0.00  0.00    -0.056 A 
ATOM     21  C37 DMQ d          -9.205  18.100  29.350  0.00  0.00     0.007 A 
ATOM     22  C36 DMQ d          -8.272  18.819  28.576  0.00  0.00     0.001 A 
ATOM     23  C35 DMQ d          -8.595  19.148  27.239  0.00  0.00     0.000 A 
ATOM     24  C34 DMQ d          -9.825  18.781  26.669  0.00  0.00     0.001 A 
ATOM     25  C33 DMQ d         -10.754  18.079  27.447  0.00  0.00     0.007 A 
ENDBRANCH  19  20
ENDBRANCH   4  19
BRANCH   8  26
ATOM     26  C7  DMQ d         -11.636  15.125  33.628  0.00  0.00     0.166 C 
BRANCH  26  27
ATOM     27  C70 DMQ d         -11.980  14.093  34.681  0.00  0.00    -0.038 A 
ATOM     28  C79 DMQ d         -11.215  12.908  34.807  0.00  0.00     0.009 A 
ATOM     29  C78 DMQ d         -11.608  11.909  35.721  0.00  0.00     0.003 A 
ATOM     30  C77 DMQ d         -12.780  12.101  36.502  0.00  0.00     0.029 A 
ATOM     31  C72 DMQ d         -13.538  13.284  36.383  0.00  0.00     0.026 A 
ATOM     32  C71 DMQ d         -13.131  14.282  35.479  0.00  0.00     0.037 A 
BRANCH  31  33
ATOM     33  N79 DMQ d         -14.723  13.449  37.165  0.00  0.00    -0.399 N 
ATOM     34  H32 DMQ d         -15.624  13.631  36.701  0.00  0.00     0.156 HD
ATOM     35  H33 DMQ d         -14.675  13.385  38.192  0.00  0.00     0.156 HD
ENDBRANCH  31  33
ENDBRANCH  26  27
ENDBRANCH   8  26
BRANCH   5  36
ATOM     36  O4  DMQ d         -13.240  15.338  28.138  0.00  0.00    -0.391 OA
ATOM     37  H5  DMQ d         -13.751  14.696  27.659  0.00  0.00     0.210 HD
ENDBRANCH   5  36
BRANCH   7  38
ATOM     38  C61 DMQ d         -12.697  12.531  31.659  0.00  0.00     0.066 C 
BRANCH  38  39
ATOM     39  C62 DMQ d         -13.946  11.756  32.074  0.00  0.00    -0.056 A 
ATOM     40  C67 DMQ d         -14.440  11.850  33.404  0.00  0.00     0.007 A 
ATOM     41  C66 DMQ d         -15.646  11.211  33.768  0.00  0.00     0.001 A 
ATOM     42  C65 DMQ d         -16.351  10.473  32.789  0.00  0.00     0.000 A 
ATOM     43  C64 DMQ d         -15.863  10.363  31.471  0.00  0.00     0.001 A 
ATOM     44  C63 DMQ d         -14.661  11.002  31.121  0.00  0.00     0.007 A 
ENDBRANCH  38  39
ENDBRANCH   7  38
BRANCH   6  45
ATOM     45  O5  DMQ d         -14.610  13.958  30.133  0.00  0.00    -0.391 OA
ATOM     46  H7  DMQ d         -15.204  13.936  30.875  0.00  0.00     0.210 HD
ENDBRANCH   6  45
TORSDOF 12
