REMARK VINA RESULT:      -6.2      8.529     12.202
REMARK  12 active torsions:
REMARK  status: ('A' for Active; 'I' for Inactive)
REMARK    1  A    between atoms: N2_3  and  C2_4 
REMARK    2  A    between atoms: C2_4  and  C20_13 
REMARK    3  A    between atoms: C3_5  and  C31_20 
REMARK    4  A    between atoms: C4_6  and  O4_7 
REMARK    5  A    between atoms: C5_8  and  O5_9 
REMARK    6  A    between atoms: C6_10  and  C61_27 
REMARK    7  A    between atoms: N7_11  and  C7_12 
REMARK    8  A    between atoms: C7_12  and  C70_34 
REMARK    9  A    between atoms: C28_17  and  N29_18 
REMARK   10  A    between atoms: C31_20  and  C32_21 
REMARK   11  A    between atoms: C61_27  and  C62_28 
REMARK   12  A    between atoms: C72_36  and  N79_37 
ROOT
ATOM      1  C1  DMQ d         -12.781   9.633  36.072  0.00  0.00     0.322 C 
ATOM      2  O1  DMQ d         -12.478   8.669  35.398  0.00  0.00    -0.247 OA
ATOM      3  N2  DMQ d         -12.445   9.545  37.366  0.00  0.00    -0.322 N 
ATOM      4  C3  DMQ d         -13.127  10.353  38.418  0.00  0.00     0.124 C 
ATOM      5  C4  DMQ d         -12.945  11.840  38.399  0.00  0.00     0.172 C 
ATOM      6  C5  DMQ d         -13.677  12.555  37.289  0.00  0.00     0.172 C 
ATOM      7  C6  DMQ d         -13.251  12.140  35.893  0.00  0.00     0.124 C 
ATOM      8  N7  DMQ d         -13.442  10.699  35.514  0.00  0.00    -0.322 N 
ENDROOT
BRANCH   3   9
ATOM      9  C2  DMQ d         -11.486   8.461  37.756  0.00  0.00     0.166 C 
BRANCH   9  10
ATOM     10  C20 DMQ d         -12.100   7.301  38.476  0.00  0.00    -0.038 A 
ATOM     11  C29 DMQ d         -11.692   6.967  39.772  0.00  0.00     0.037 A 
ATOM     12  C28 DMQ d         -12.248   5.829  40.393  0.00  0.00     0.026 A 
ATOM     13  C23 DMQ d         -13.238   5.056  39.736  0.00  0.00     0.029 A 
ATOM     14  C22 DMQ d         -13.655   5.395  38.446  0.00  0.00     0.003 A 
ATOM     15  C21 DMQ d         -13.069   6.514  37.831  0.00  0.00     0.009 A 
BRANCH  12  16
ATOM     16  N29 DMQ d         -11.714   5.343  41.617  0.00  0.00    -0.399 N 
ATOM     17  H14 DMQ d         -11.877   5.862  42.492  0.00  0.00     0.156 HD
ATOM     18  H15 DMQ d         -11.164   4.472  41.630  0.00  0.00     0.156 HD
ENDBRANCH  12  16
ENDBRANCH   9  10
ENDBRANCH   3   9
BRANCH   4  19
ATOM     19  C31 DMQ d         -14.566   9.844  38.627  0.00  0.00     0.066 C 
BRANCH  19  20
ATOM     20  C32 DMQ d         -14.620   9.086  39.946  0.00  0.00    -0.056 A 
ATOM     21  C37 DMQ d         -15.576   8.049  40.115  0.00  0.00     0.007 A 
ATOM     22  C36 DMQ d         -15.664   7.369  41.347  0.00  0.00     0.001 A 
ATOM     23  C35 DMQ d         -14.784   7.727  42.394  0.00  0.00     0.000 A 
ATOM     24  C34 DMQ d         -13.831   8.746  42.237  0.00  0.00     0.001 A 
ATOM     25  C33 DMQ d         -13.757   9.429  41.016  0.00  0.00     0.007 A 
ENDBRANCH  19  20
ENDBRANCH   4  19
BRANCH   8  26
ATOM     26  C7  DMQ d         -14.241  10.464  34.282  0.00  0.00     0.166 C 
BRANCH  26  27
ATOM     27  C70 DMQ d         -13.580  10.620  32.930  0.00  0.00    -0.038 A 
ATOM     28  C79 DMQ d         -13.710  11.824  32.196  0.00  0.00     0.009 A 
ATOM     29  C78 DMQ d         -13.179  11.919  30.894  0.00  0.00     0.003 A 
ATOM     30  C77 DMQ d         -12.522  10.793  30.327  0.00  0.00     0.029 A 
ATOM     31  C72 DMQ d         -12.383   9.596  31.059  0.00  0.00     0.026 A 
ATOM     32  C71 DMQ d         -12.904   9.515  32.363  0.00  0.00     0.037 A 
BRANCH  31  33
ATOM     33  N79 DMQ d         -11.735   8.471  30.462  0.00  0.00    -0.399 N 
ATOM     34  H32 DMQ d         -10.791   8.196  30.772  0.00  0.00     0.156 HD
ATOM     35  H33 DMQ d         -12.211   7.934  29.723  0.00  0.00     0.156 HD
ENDBRANCH  31  33
ENDBRANCH  26  27
ENDBRANCH   8  26
BRANCH   5  36
ATOM     36  O4  DMQ d         -13.390  12.229  39.660  0.00  0.00    -0.391 OA
ATOM     37  H5  DMQ d         -13.821  13.074  39.595  0.00  0.00     0.210 HD
ENDBRANCH   5  36
BRANCH   7  38
ATOM     38  C61 DMQ d         -11.829  12.613  35.418  0.00  0.00     0.066 C 
BRANCH  38  39
ATOM     39  C62 DMQ d         -11.846  13.834  34.499  0.00  0.00    -0.056 A 
ATOM     40  C67 DMQ d         -10.631  14.481  34.143  0.00  0.00     0.007 A 
ATOM     41  C66 DMQ d         -10.632  15.550  33.221  0.00  0.00     0.001 A 
ATOM     42  C65 DMQ d         -11.862  15.969  32.661  0.00  0.00     0.000 A 
ATOM     43  C64 DMQ d         -13.073  15.342  33.017  0.00  0.00     0.001 A 
ATOM     44  C63 DMQ d         -13.060  14.280  33.937  0.00  0.00     0.007 A 
ENDBRANCH  38  39
ENDBRANCH   7  38
BRANCH   6  45
ATOM     45  O5  DMQ d         -13.364  13.894  37.426  0.00  0.00    -0.391 OA
ATOM     46  H7  DMQ d         -13.996  14.416  36.946  0.00  0.00     0.210 HD
ENDBRANCH   6  45
TORSDOF 12
