REMARK VINA RESULT:      -5.9      2.738      8.787
REMARK  12 active torsions:
REMARK  status: ('A' for Active; 'I' for Inactive)
REMARK    1  A    between atoms: N2_3  and  C2_4 
REMARK    2  A    between atoms: C2_4  and  C20_13 
REMARK    3  A    between atoms: C3_5  and  C31_20 
REMARK    4  A    between atoms: C4_6  and  O4_7 
REMARK    5  A    between atoms: C5_8  and  O5_9 
REMARK    6  A    between atoms: C6_10  and  C61_27 
REMARK    7  A    between atoms: N7_11  and  C7_12 
REMARK    8  A    between atoms: C7_12  and  C70_34 
REMARK    9  A    between atoms: C28_17  and  N29_18 
REMARK   10  A    between atoms: C31_20  and  C32_21 
REMARK   11  A    between atoms: C61_27  and  C62_28 
REMARK   12  A    between atoms: C72_36  and  N79_37 
ROOT
ATOM      1  C1  DMQ d         -10.842  14.272  29.914  0.00  0.00     0.322 C 
ATOM      2  O1  DMQ d         -10.077  14.650  30.780  0.00  0.00    -0.247 OA
ATOM      3  N2  DMQ d         -10.291  14.115  28.704  0.00  0.00    -0.322 N 
ATOM      4  C3  DMQ d         -11.105  14.138  27.454  0.00  0.00     0.124 C 
ATOM      5  C4  DMQ d         -12.089  13.031  27.228  0.00  0.00     0.172 C 
ATOM      6  C5  DMQ d         -13.318  13.085  28.103  0.00  0.00     0.172 C 
ATOM      7  C6  DMQ d         -13.031  12.990  29.589  0.00  0.00     0.124 C 
ATOM      8  N7  DMQ d         -12.170  14.062  30.195  0.00  0.00    -0.322 N 
ENDROOT
BRANCH   3   9
ATOM      9  C2  DMQ d          -8.794  14.106  28.625  0.00  0.00     0.166 C 
BRANCH   9  10
ATOM     10  C20 DMQ d          -8.163  15.448  28.427  0.00  0.00    -0.038 A 
ATOM     11  C29 DMQ d          -8.507  16.528  29.248  0.00  0.00     0.037 A 
ATOM     12  C28 DMQ d          -7.938  17.793  28.989  0.00  0.00     0.026 A 
ATOM     13  C23 DMQ d          -6.998  17.965  27.943  0.00  0.00     0.029 A 
ATOM     14  C22 DMQ d          -6.644  16.885  27.129  0.00  0.00     0.003 A 
ATOM     15  C21 DMQ d          -7.242  15.639  27.383  0.00  0.00     0.009 A 
BRANCH  12  16
ATOM     16  N29 DMQ d          -8.415  18.949  29.664  0.00  0.00    -0.399 N 
ATOM     17  H14 DMQ d          -9.216  19.474  29.284  0.00  0.00     0.156 HD
ATOM     18  H15 DMQ d          -7.961  19.262  30.534  0.00  0.00     0.156 HD
ENDBRANCH  12  16
ENDBRANCH   9  10
ENDBRANCH   3   9
BRANCH   4  19
ATOM     19  C31 DMQ d         -11.610  15.567  27.177  0.00  0.00     0.066 C 
BRANCH  19  20
ATOM     20  C32 DMQ d         -10.652  16.234  26.200  0.00  0.00    -0.056 A 
ATOM     21  C37 DMQ d         -10.368  17.619  26.338  0.00  0.00     0.007 A 
ATOM     22  C36 DMQ d          -9.516  18.256  25.413  0.00  0.00     0.001 A 
ATOM     23  C35 DMQ d          -8.947  17.496  24.365  0.00  0.00     0.000 A 
ATOM     24  C34 DMQ d          -9.216  16.125  24.223  0.00  0.00     0.001 A 
ATOM     25  C33 DMQ d         -10.074  15.499  25.135  0.00  0.00     0.007 A 
ENDBRANCH  19  20
ENDBRANCH   4  19
BRANCH   8  26
ATOM     26  C7  DMQ d         -12.767  14.783  31.351  0.00  0.00     0.166 C 
BRANCH  26  27
ATOM     27  C70 DMQ d         -12.117  14.667  32.712  0.00  0.00    -0.038 A 
ATOM     28  C79 DMQ d         -12.446  13.597  33.581  0.00  0.00     0.009 A 
ATOM     29  C78 DMQ d         -11.913  13.559  34.885  0.00  0.00     0.003 A 
ATOM     30  C77 DMQ d         -11.054  14.605  35.318  0.00  0.00     0.029 A 
ATOM     31  C72 DMQ d         -10.719  15.665  34.452  0.00  0.00     0.026 A 
ATOM     32  C71 DMQ d         -11.244  15.689  33.147  0.00  0.00     0.037 A 
BRANCH  31  33
ATOM     33  N79 DMQ d          -9.867  16.717  34.913  0.00  0.00    -0.399 N 
ATOM     34  H32 DMQ d          -9.749  16.877  35.924  0.00  0.00     0.156 HD
ATOM     35  H33 DMQ d          -9.373  17.313  34.235  0.00  0.00     0.156 HD
ENDBRANCH  31  33
ENDBRANCH  26  27
ENDBRANCH   8  26
BRANCH   5  36
ATOM     36  O4  DMQ d         -12.398  13.154  25.876  0.00  0.00    -0.391 OA
ATOM     37  H5  DMQ d         -12.296  12.310  25.451  0.00  0.00     0.210 HD
ENDBRANCH   5  36
BRANCH   7  38
ATOM     38  C61 DMQ d         -12.566  11.589  30.131  0.00  0.00     0.066 C 
BRANCH  38  39
ATOM     39  C62 DMQ d         -13.480  10.992  31.199  0.00  0.00    -0.056 A 
ATOM     40  C67 DMQ d         -14.879  11.243  31.168  0.00  0.00     0.007 A 
ATOM     41  C66 DMQ d         -15.740  10.619  32.098  0.00  0.00     0.001 A 
ATOM     42  C65 DMQ d         -15.187   9.744  33.061  0.00  0.00     0.000 A 
ATOM     43  C64 DMQ d         -13.799   9.498  33.108  0.00  0.00     0.001 A 
ATOM     44  C63 DMQ d         -12.952  10.126  32.179  0.00  0.00     0.007 A 
ENDBRANCH  38  39
ENDBRANCH   7  38
BRANCH   6  45
ATOM     45  O5  DMQ d         -14.076  11.981  27.766  0.00  0.00    -0.391 OA
ATOM     46  H7  DMQ d         -14.015  11.830  26.830  0.00  0.00     0.210 HD
ENDBRANCH   6  45
TORSDOF 12
