REMARK VINA RESULT:      -5.7      8.257     12.359
REMARK  12 active torsions:
REMARK  status: ('A' for Active; 'I' for Inactive)
REMARK    1  A    between atoms: N2_3  and  C2_4 
REMARK    2  A    between atoms: C2_4  and  C20_13 
REMARK    3  A    between atoms: C3_5  and  C31_20 
REMARK    4  A    between atoms: C4_6  and  O4_7 
REMARK    5  A    between atoms: C5_8  and  O5_9 
REMARK    6  A    between atoms: C6_10  and  C61_27 
REMARK    7  A    between atoms: N7_11  and  C7_12 
REMARK    8  A    between atoms: C7_12  and  C70_34 
REMARK    9  A    between atoms: C28_17  and  N29_18 
REMARK   10  A    between atoms: C31_20  and  C32_21 
REMARK   11  A    between atoms: C61_27  and  C62_28 
REMARK   12  A    between atoms: C72_36  and  N79_37 
ROOT
ATOM      1  C1  DMQ d         -12.820  10.050  35.415  0.00  0.00     0.322 C 
ATOM      2  O1  DMQ d         -12.384   9.165  34.705  0.00  0.00    -0.247 OA
ATOM      3  N2  DMQ d         -12.740   9.808  36.730  0.00  0.00    -0.322 N 
ATOM      4  C3  DMQ d         -13.621  10.498  37.717  0.00  0.00     0.124 C 
ATOM      5  C4  DMQ d         -13.452  11.975  37.906  0.00  0.00     0.172 C 
ATOM      6  C5  DMQ d         -13.961  12.824  36.766  0.00  0.00     0.172 C 
ATOM      7  C6  DMQ d         -13.270  12.567  35.440  0.00  0.00     0.124 C 
ATOM      8  N7  DMQ d         -13.370  11.182  34.866  0.00  0.00    -0.322 N 
ENDROOT
BRANCH   3   9
ATOM      9  C2  DMQ d         -11.865   8.673  37.169  0.00  0.00     0.166 C 
BRANCH   9  10
ATOM     10  C20 DMQ d         -12.596   7.436  37.589  0.00  0.00    -0.038 A 
ATOM     11  C29 DMQ d         -12.388   6.878  38.855  0.00  0.00     0.037 A 
ATOM     12  C28 DMQ d         -13.046   5.676  39.190  0.00  0.00     0.026 A 
ATOM     13  C23 DMQ d         -13.940   5.061  38.279  0.00  0.00     0.029 A 
ATOM     14  C22 DMQ d         -14.159   5.623  37.018  0.00  0.00     0.003 A 
ATOM     15  C21 DMQ d         -13.472   6.805  36.690  0.00  0.00     0.009 A 
BRANCH  12  16
ATOM     16  N29 DMQ d         -12.705   4.974  40.379  0.00  0.00    -0.399 N 
ATOM     17  H14 DMQ d         -12.519   5.495  41.248  0.00  0.00     0.156 HD
ATOM     18  H15 DMQ d         -12.644   3.946  40.370  0.00  0.00     0.156 HD
ENDBRANCH  12  16
ENDBRANCH   9  10
ENDBRANCH   3   9
BRANCH   4  19
ATOM     19  C31 DMQ d         -15.068   9.988  37.583  0.00  0.00     0.066 C 
BRANCH  19  20
ATOM     20  C32 DMQ d         -15.373   9.090  38.774  0.00  0.00    -0.056 A 
ATOM     21  C37 DMQ d         -14.659   9.276  39.988  0.00  0.00     0.007 A 
ATOM     22  C36 DMQ d         -14.904   8.422  41.083  0.00  0.00     0.001 A 
ATOM     23  C35 DMQ d         -15.871   7.398  40.955  0.00  0.00     0.000 A 
ATOM     24  C34 DMQ d         -16.586   7.209  39.761  0.00  0.00     0.001 A 
ATOM     25  C33 DMQ d         -16.330   8.050  38.672  0.00  0.00     0.007 A 
ENDBRANCH  19  20
ENDBRANCH   4  19
BRANCH   8  26
ATOM     26  C7  DMQ d         -13.913  11.102  33.485  0.00  0.00     0.166 C 
BRANCH  26  27
ATOM     27  C70 DMQ d         -15.315  10.575  33.270  0.00  0.00    -0.038 A 
ATOM     28  C79 DMQ d         -15.634   9.822  32.113  0.00  0.00     0.009 A 
ATOM     29  C78 DMQ d         -16.966   9.427  31.874  0.00  0.00     0.003 A 
ATOM     30  C77 DMQ d         -17.980   9.800  32.798  0.00  0.00     0.029 A 
ATOM     31  C72 DMQ d         -17.663  10.541  33.953  0.00  0.00     0.026 A 
ATOM     32  C71 DMQ d         -16.329  10.919  34.192  0.00  0.00     0.037 A 
BRANCH  31  33
ATOM     33  N79 DMQ d         -18.700  10.921  34.860  0.00  0.00    -0.399 N 
ATOM     34  H32 DMQ d         -19.132  10.215  35.474  0.00  0.00     0.156 HD
ATOM     35  H33 DMQ d         -19.016  11.900  34.900  0.00  0.00     0.156 HD
ENDBRANCH  31  33
ENDBRANCH  26  27
ENDBRANCH   8  26
BRANCH   5  36
ATOM     36  O4  DMQ d         -14.137  12.222  39.093  0.00  0.00    -0.391 OA
ATOM     37  H5  DMQ d         -15.061  12.340  38.906  0.00  0.00     0.210 HD
ENDBRANCH   5  36
BRANCH   7  38
ATOM     38  C61 DMQ d         -11.787  13.072  35.307  0.00  0.00     0.066 C 
BRANCH  38  39
ATOM     39  C62 DMQ d         -11.593  14.193  34.288  0.00  0.00    -0.056 A 
ATOM     40  C67 DMQ d         -10.380  14.933  34.258  0.00  0.00     0.007 A 
ATOM     41  C66 DMQ d         -10.158  15.907  33.258  0.00  0.00     0.001 A 
ATOM     42  C65 DMQ d         -11.165  16.135  32.291  0.00  0.00     0.000 A 
ATOM     43  C64 DMQ d         -12.376  15.414  32.320  0.00  0.00     0.001 A 
ATOM     44  C63 DMQ d         -12.586  14.450  33.320  0.00  0.00     0.007 A 
ENDBRANCH  38  39
ENDBRANCH   7  38
BRANCH   6  45
ATOM     45  O5  DMQ d         -13.693  14.133  37.115  0.00  0.00    -0.391 OA
ATOM     46  H7  DMQ d         -13.745  14.224  38.059  0.00  0.00     0.210 HD
ENDBRANCH   6  45
TORSDOF 12
