REMARK VINA RESULT:     -12.8      0.000      0.000
REMARK  12 active torsions:
REMARK  status: ('A' for Active; 'I' for Inactive)
REMARK    1  A    between atoms: N2_3  and  C2_4 
REMARK    2  A    between atoms: C2_4  and  C20_13 
REMARK    3  A    between atoms: C3_5  and  C31_20 
REMARK    4  A    between atoms: C4_6  and  O4_7 
REMARK    5  A    between atoms: C5_8  and  O5_9 
REMARK    6  A    between atoms: C6_10  and  C61_27 
REMARK    7  A    between atoms: N7_11  and  C7_12 
REMARK    8  A    between atoms: C7_12  and  C70_34 
REMARK    9  A    between atoms: C28_17  and  N29_18 
REMARK   10  A    between atoms: C31_20  and  C32_21 
REMARK   11  A    between atoms: C61_27  and  C62_28 
REMARK   12  A    between atoms: C72_36  and  N79_37 
ROOT
ATOM      1  C1  DMQ d          -8.753  15.467  27.568  0.00  0.00     0.322 C 
ATOM      2  O1  DMQ d          -8.062  14.471  27.655  0.00  0.00    -0.247 OA
ATOM      3  N2  DMQ d          -9.647  15.620  28.553  0.00  0.00    -0.322 N 
ATOM      4  C3  DMQ d         -10.869  16.461  28.390  0.00  0.00     0.124 C 
ATOM      5  C4  DMQ d         -10.694  17.939  28.221  0.00  0.00     0.172 C 
ATOM      6  C5  DMQ d         -10.147  18.366  26.881  0.00  0.00     0.172 C 
ATOM      7  C6  DMQ d          -8.766  17.821  26.569  0.00  0.00     0.124 C 
ATOM      8  N7  DMQ d          -8.612  16.328  26.507  0.00  0.00    -0.322 N 
ENDROOT
BRANCH   3   9
ATOM      9  C2  DMQ d          -9.484  14.762  29.771  0.00  0.00     0.166 C 
BRANCH   9  10
ATOM     10  C20 DMQ d          -9.293  15.512  31.053  0.00  0.00    -0.038 A 
ATOM     11  C29 DMQ d         -10.112  15.257  32.158  0.00  0.00     0.037 A 
ATOM     12  C28 DMQ d          -9.944  16.029  33.327  0.00  0.00     0.026 A 
ATOM     13  C23 DMQ d          -8.933  17.019  33.402  0.00  0.00     0.029 A 
ATOM     14  C22 DMQ d          -8.106  17.267  32.303  0.00  0.00     0.003 A 
ATOM     15  C21 DMQ d          -8.307  16.509  31.137  0.00  0.00     0.009 A 
BRANCH  12  16
ATOM     16  N29 DMQ d         -10.884  15.941  34.389  0.00  0.00    -0.399 N 
ATOM     17  H14 DMQ d         -11.302  16.798  34.779  0.00  0.00     0.156 HD
ATOM     18  H15 DMQ d         -11.148  15.021  34.769  0.00  0.00     0.156 HD
ENDBRANCH  12  16
ENDBRANCH   9  10
ENDBRANCH   3   9
BRANCH   4  19
ATOM     19  C31 DMQ d         -11.858  15.777  27.428  0.00  0.00     0.066 C 
BRANCH  19  20
ATOM     20  C32 DMQ d         -12.410  14.533  28.110  0.00  0.00    -0.056 A 
ATOM     21  C37 DMQ d         -12.075  13.251  27.600  0.00  0.00     0.007 A 
ATOM     22  C36 DMQ d         -12.615  12.094  28.198  0.00  0.00     0.001 A 
ATOM     23  C35 DMQ d         -13.477  12.234  29.311  0.00  0.00     0.000 A 
ATOM     24  C34 DMQ d         -13.811  13.496  29.827  0.00  0.00     0.001 A 
ATOM     25  C33 DMQ d         -13.283  14.643  29.221  0.00  0.00     0.007 A 
ENDBRANCH  19  20
ENDBRANCH   4  19
BRANCH   8  26
ATOM     26  C7  DMQ d          -8.037  15.798  25.243  0.00  0.00     0.166 C 
BRANCH  26  27
ATOM     27  C70 DMQ d          -8.531  16.342  23.920  0.00  0.00    -0.038 A 
ATOM     28  C79 DMQ d          -9.828  16.022  23.447  0.00  0.00     0.009 A 
ATOM     29  C78 DMQ d         -10.236  16.449  22.167  0.00  0.00     0.003 A 
ATOM     30  C77 DMQ d          -9.333  17.191  21.358  0.00  0.00     0.029 A 
ATOM     31  C72 DMQ d          -8.046  17.517  21.831  0.00  0.00     0.026 A 
ATOM     32  C71 DMQ d          -7.651  17.100  23.116  0.00  0.00     0.037 A 
BRANCH  31  33
ATOM     33  N79 DMQ d          -7.147  18.248  20.995  0.00  0.00    -0.399 N 
ATOM     34  H32 DMQ d          -7.507  18.767  20.181  0.00  0.00     0.156 HD
ATOM     35  H33 DMQ d          -6.139  18.257  21.207  0.00  0.00     0.156 HD
ENDBRANCH  31  33
ENDBRANCH  26  27
ENDBRANCH   8  26
BRANCH   5  36
ATOM     36  O4  DMQ d         -11.975  18.437  28.450  0.00  0.00    -0.391 OA
ATOM     37  H5  DMQ d         -12.612  17.750  28.295  0.00  0.00     0.210 HD
ENDBRANCH   5  36
BRANCH   7  38
ATOM     38  C61 DMQ d          -7.566  18.429  27.383  0.00  0.00     0.066 C 
BRANCH  38  39
ATOM     39  C62 DMQ d          -6.217  18.347  26.671  0.00  0.00    -0.056 A 
ATOM     40  C67 DMQ d          -5.259  17.372  27.061  0.00  0.00     0.007 A 
ATOM     41  C66 DMQ d          -4.049  17.230  26.346  0.00  0.00     0.001 A 
ATOM     42  C65 DMQ d          -3.805  18.076  25.239  0.00  0.00     0.000 A 
ATOM     43  C64 DMQ d          -4.744  19.055  24.853  0.00  0.00     0.001 A 
ATOM     44  C63 DMQ d          -5.943  19.188  25.573  0.00  0.00     0.007 A 
ENDBRANCH  38  39
ENDBRANCH   7  38
BRANCH   6  45
ATOM     45  O5  DMQ d         -10.036  19.742  26.934  0.00  0.00    -0.391 OA
ATOM     46  H7  DMQ d          -9.383  19.981  27.582  0.00  0.00     0.210 HD
ENDBRANCH   6  45
TORSDOF 12
