REMARK VINA RESULT:      -5.6      7.191     11.137
REMARK  12 active torsions:
REMARK  status: ('A' for Active; 'I' for Inactive)
REMARK    1  A    between atoms: N2_3  and  C2_4 
REMARK    2  A    between atoms: C2_4  and  C20_13 
REMARK    3  A    between atoms: C3_5  and  C31_20 
REMARK    4  A    between atoms: C4_6  and  O4_7 
REMARK    5  A    between atoms: C5_8  and  O5_9 
REMARK    6  A    between atoms: C6_10  and  C61_27 
REMARK    7  A    between atoms: N7_11  and  C7_12 
REMARK    8  A    between atoms: C7_12  and  C70_34 
REMARK    9  A    between atoms: C28_17  and  N29_18 
REMARK   10  A    between atoms: C31_20  and  C32_21 
REMARK   11  A    between atoms: C61_27  and  C62_28 
REMARK   12  A    between atoms: C72_36  and  N79_37 
ROOT
ATOM      1  C1  DMQ d         -13.236   9.258  34.150  0.00  0.00     0.322 C 
ATOM      2  O1  DMQ d         -12.212   8.848  34.659  0.00  0.00    -0.247 OA
ATOM      3  N2  DMQ d         -14.195   9.607  35.018  0.00  0.00    -0.322 N 
ATOM      4  C3  DMQ d         -15.634   9.663  34.627  0.00  0.00     0.124 C 
ATOM      5  C4  DMQ d         -16.058  10.698  33.630  0.00  0.00     0.172 C 
ATOM      6  C5  DMQ d         -15.621  10.430  32.210  0.00  0.00     0.172 C 
ATOM      7  C6  DMQ d         -14.116  10.370  32.023  0.00  0.00     0.124 C 
ATOM      8  N7  DMQ d         -13.367   9.314  32.785  0.00  0.00    -0.322 N 
ENDROOT
BRANCH   3   9
ATOM      9  C2  DMQ d         -13.801   9.758  36.456  0.00  0.00     0.166 C 
BRANCH   9  10
ATOM     10  C20 DMQ d         -14.494  10.864  37.189  0.00  0.00    -0.038 A 
ATOM     11  C29 DMQ d         -14.019  12.178  37.116  0.00  0.00     0.037 A 
ATOM     12  C28 DMQ d         -14.660  13.181  37.872  0.00  0.00     0.026 A 
ATOM     13  C23 DMQ d         -15.796  12.877  38.663  0.00  0.00     0.029 A 
ATOM     14  C22 DMQ d         -16.279  11.568  38.729  0.00  0.00     0.003 A 
ATOM     15  C21 DMQ d         -15.610  10.576  37.992  0.00  0.00     0.009 A 
BRANCH  12  16
ATOM     16  N29 DMQ d         -14.087  14.477  37.984  0.00  0.00    -0.399 N 
ATOM     17  H14 DMQ d         -13.789  14.983  37.137  0.00  0.00     0.156 HD
ATOM     18  H15 DMQ d         -13.969  14.910  38.911  0.00  0.00     0.156 HD
ENDBRANCH  12  16
ENDBRANCH   9  10
ENDBRANCH   3   9
BRANCH   4  19
ATOM     19  C31 DMQ d         -16.178   8.239  34.406  0.00  0.00     0.066 C 
BRANCH  19  20
ATOM     20  C32 DMQ d         -16.697   7.711  35.736  0.00  0.00    -0.056 A 
ATOM     21  C37 DMQ d         -15.978   6.687  36.408  0.00  0.00     0.007 A 
ATOM     22  C36 DMQ d         -16.473   6.161  37.619  0.00  0.00     0.001 A 
ATOM     23  C35 DMQ d         -17.677   6.676  38.152  0.00  0.00     0.000 A 
ATOM     24  C34 DMQ d         -18.393   7.693  37.500  0.00  0.00     0.001 A 
ATOM     25  C33 DMQ d         -17.906   8.202  36.290  0.00  0.00     0.007 A 
ENDBRANCH  19  20
ENDBRANCH   4  19
BRANCH   8  26
ATOM     26  C7  DMQ d         -12.524   8.410  31.959  0.00  0.00     0.166 C 
BRANCH  26  27
ATOM     27  C70 DMQ d         -13.163   7.219  31.277  0.00  0.00    -0.038 A 
ATOM     28  C79 DMQ d         -14.402   6.706  31.732  0.00  0.00     0.009 A 
ATOM     29  C78 DMQ d         -14.935   5.535  31.157  0.00  0.00     0.003 A 
ATOM     30  C77 DMQ d         -14.212   4.874  30.126  0.00  0.00     0.029 A 
ATOM     31  C72 DMQ d         -12.983   5.389  29.666  0.00  0.00     0.026 A 
ATOM     32  C71 DMQ d         -12.465   6.566  30.236  0.00  0.00     0.037 A 
BRANCH  31  33
ATOM     33  N79 DMQ d         -12.264   4.699  28.642  0.00  0.00    -0.399 N 
ATOM     34  H32 DMQ d         -11.234   4.709  28.639  0.00  0.00     0.156 HD
ATOM     35  H33 DMQ d         -12.776   4.190  27.907  0.00  0.00     0.156 HD
ENDBRANCH  31  33
ENDBRANCH  26  27
ENDBRANCH   8  26
BRANCH   5  36
ATOM     36  O4  DMQ d         -17.445  10.712  33.760  0.00  0.00    -0.391 OA
ATOM     37  H5  DMQ d         -17.817  10.004  33.247  0.00  0.00     0.210 HD
ENDBRANCH   5  36
BRANCH   7  38
ATOM     38  C61 DMQ d         -13.337  11.732  32.129  0.00  0.00     0.066 C 
BRANCH  38  39
ATOM     39  C62 DMQ d         -12.814  12.264  30.796  0.00  0.00    -0.056 A 
ATOM     40  C67 DMQ d         -12.983  11.506  29.606  0.00  0.00     0.007 A 
ATOM     41  C66 DMQ d         -12.585  12.034  28.357  0.00  0.00     0.001 A 
ATOM     42  C65 DMQ d         -12.013  13.326  28.313  0.00  0.00     0.000 A 
ATOM     43  C64 DMQ d         -11.830  14.081  29.489  0.00  0.00     0.001 A 
ATOM     44  C63 DMQ d         -12.228  13.545  30.726  0.00  0.00     0.007 A 
ENDBRANCH  38  39
ENDBRANCH   7  38
BRANCH   6  45
ATOM     45  O5  DMQ d         -16.079  11.496  31.462  0.00  0.00    -0.391 OA
ATOM     46  H7  DMQ d         -15.343  12.033  31.193  0.00  0.00     0.210 HD
ENDBRANCH   6  45
TORSDOF 12
