REMARK VINA RESULT:      -9.4      1.500      5.133
REMARK  12 active torsions:
REMARK  status: ('A' for Active; 'I' for Inactive)
REMARK    1  A    between atoms: N2_3  and  C2_4 
REMARK    2  A    between atoms: C2_4  and  C20_13 
REMARK    3  A    between atoms: C3_5  and  C31_20 
REMARK    4  A    between atoms: C4_6  and  O4_7 
REMARK    5  A    between atoms: C5_8  and  O5_9 
REMARK    6  A    between atoms: C6_10  and  C61_27 
REMARK    7  A    between atoms: N7_11  and  C7_12 
REMARK    8  A    between atoms: C7_12  and  C70_34 
REMARK    9  A    between atoms: C28_17  and  N29_18 
REMARK   10  A    between atoms: C31_20  and  C32_21 
REMARK   11  A    between atoms: C61_27  and  C62_28 
REMARK   12  A    between atoms: C72_36  and  N79_37 
ROOT
ATOM      1  C1  DMQ d          -9.995  17.695  27.669  0.00  0.00     0.322 C 
ATOM      2  O1  DMQ d         -10.667  18.698  27.534  0.00  0.00    -0.247 OA
ATOM      3  N2  DMQ d         -10.378  16.891  28.669  0.00  0.00    -0.322 N 
ATOM      4  C3  DMQ d          -9.445  15.910  29.297  0.00  0.00     0.124 C 
ATOM      5  C4  DMQ d          -8.957  14.763  28.466  0.00  0.00     0.172 C 
ATOM      6  C5  DMQ d          -7.951  15.132  27.404  0.00  0.00     0.172 C 
ATOM      7  C6  DMQ d          -8.469  16.110  26.366  0.00  0.00     0.124 C 
ATOM      8  N7  DMQ d          -8.916  17.459  26.853  0.00  0.00    -0.322 N 
ENDROOT
BRANCH   3   9
ATOM      9  C2  DMQ d         -11.727  17.138  29.274  0.00  0.00     0.166 C 
BRANCH   9  10
ATOM     10  C20 DMQ d         -12.634  15.948  29.307  0.00  0.00    -0.038 A 
ATOM     11  C29 DMQ d         -12.604  15.057  30.385  0.00  0.00     0.037 A 
ATOM     12  C28 DMQ d         -13.428  13.912  30.350  0.00  0.00     0.026 A 
ATOM     13  C23 DMQ d         -14.307  13.685  29.262  0.00  0.00     0.029 A 
ATOM     14  C22 DMQ d         -14.347  14.581  28.190  0.00  0.00     0.003 A 
ATOM     15  C21 DMQ d         -13.498  15.700  28.228  0.00  0.00     0.009 A 
BRANCH  12  16
ATOM     16  N29 DMQ d         -13.277  12.886  31.322  0.00  0.00    -0.399 N 
ATOM     17  H14 DMQ d         -12.757  12.028  31.088  0.00  0.00     0.156 HD
ATOM     18  H15 DMQ d         -13.687  13.000  32.260  0.00  0.00     0.156 HD
ENDBRANCH  12  16
ENDBRANCH   9  10
ENDBRANCH   3   9
BRANCH   4  19
ATOM     19  C31 DMQ d          -8.382  16.649  30.132  0.00  0.00     0.066 C 
BRANCH  19  20
ATOM     20  C32 DMQ d          -8.806  16.611  31.593  0.00  0.00    -0.056 A 
ATOM     21  C37 DMQ d          -9.699  15.598  32.034  0.00  0.00     0.007 A 
ATOM     22  C36 DMQ d         -10.131  15.579  33.376  0.00  0.00     0.001 A 
ATOM     23  C35 DMQ d          -9.654  16.568  34.267  0.00  0.00     0.000 A 
ATOM     24  C34 DMQ d          -8.766  17.571  33.843  0.00  0.00     0.001 A 
ATOM     25  C33 DMQ d          -8.351  17.594  32.506  0.00  0.00     0.007 A 
ENDBRANCH  19  20
ENDBRANCH   4  19
BRANCH   8  26
ATOM     26  C7  DMQ d          -8.261  18.623  26.199  0.00  0.00     0.166 C 
BRANCH  26  27
ATOM     27  C70 DMQ d          -6.870  18.462  25.624  0.00  0.00    -0.038 A 
ATOM     28  C79 DMQ d          -5.804  17.996  26.433  0.00  0.00     0.009 A 
ATOM     29  C78 DMQ d          -4.494  17.951  25.915  0.00  0.00     0.003 A 
ATOM     30  C77 DMQ d          -4.256  18.385  24.583  0.00  0.00     0.029 A 
ATOM     31  C72 DMQ d          -5.317  18.842  23.774  0.00  0.00     0.026 A 
ATOM     32  C71 DMQ d          -6.624  18.870  24.294  0.00  0.00     0.037 A 
BRANCH  31  33
ATOM     33  N79 DMQ d          -5.052  19.291  22.444  0.00  0.00    -0.399 N 
ATOM     34  H32 DMQ d          -4.098  19.232  22.060  0.00  0.00     0.156 HD
ATOM     35  H33 DMQ d          -5.816  19.674  21.869  0.00  0.00     0.156 HD
ENDBRANCH  31  33
ENDBRANCH  26  27
ENDBRANCH   8  26
BRANCH   5  36
ATOM     36  O4  DMQ d          -8.428  13.889  29.413  0.00  0.00    -0.391 OA
ATOM     37  H5  DMQ d          -8.895  13.993  30.234  0.00  0.00     0.210 HD
ENDBRANCH   5  36
BRANCH   7  38
ATOM     38  C61 DMQ d          -9.524  15.558  25.339  0.00  0.00     0.066 C 
BRANCH  38  39
ATOM     39  C62 DMQ d          -9.255  15.951  23.888  0.00  0.00    -0.056 A 
ATOM     40  C67 DMQ d         -10.321  16.382  23.052  0.00  0.00     0.007 A 
ATOM     41  C66 DMQ d         -10.065  16.835  21.739  0.00  0.00     0.001 A 
ATOM     42  C65 DMQ d          -8.731  16.848  21.269  0.00  0.00     0.000 A 
ATOM     43  C64 DMQ d          -7.669  16.411  22.086  0.00  0.00     0.001 A 
ATOM     44  C63 DMQ d          -7.936  15.960  23.390  0.00  0.00     0.007 A 
ENDBRANCH  38  39
ENDBRANCH   7  38
BRANCH   6  45
ATOM     45  O5  DMQ d          -7.651  13.959  26.739  0.00  0.00    -0.391 OA
ATOM     46  H7  DMQ d          -8.314  13.307  26.934  0.00  0.00     0.210 HD
ENDBRANCH   6  45
TORSDOF 12
