REMARK VINA RESULT:      -9.3      1.535      7.643
REMARK  12 active torsions:
REMARK  status: ('A' for Active; 'I' for Inactive)
REMARK    1  A    between atoms: N2_3  and  C2_4 
REMARK    2  A    between atoms: C2_4  and  C20_13 
REMARK    3  A    between atoms: C3_5  and  C31_20 
REMARK    4  A    between atoms: C4_6  and  O4_7 
REMARK    5  A    between atoms: C5_8  and  O5_9 
REMARK    6  A    between atoms: C6_10  and  C61_27 
REMARK    7  A    between atoms: N7_11  and  C7_12 
REMARK    8  A    between atoms: C7_12  and  C70_34 
REMARK    9  A    between atoms: C28_17  and  N29_18 
REMARK   10  A    between atoms: C31_20  and  C32_21 
REMARK   11  A    between atoms: C61_27  and  C62_28 
REMARK   12  A    between atoms: C72_36  and  N79_37 
ROOT
ATOM      1  C1  DMQ d          -9.683  17.821  27.372  0.00  0.00     0.322 C 
ATOM      2  O1  DMQ d         -10.107  18.958  27.307  0.00  0.00    -0.247 OA
ATOM      3  N2  DMQ d          -8.740  17.518  26.470  0.00  0.00    -0.322 N 
ATOM      4  C3  DMQ d          -8.453  16.111  26.066  0.00  0.00     0.124 C 
ATOM      5  C4  DMQ d          -7.873  15.184  27.090  0.00  0.00     0.172 C 
ATOM      6  C5  DMQ d          -8.835  14.743  28.166  0.00  0.00     0.172 C 
ATOM      7  C6  DMQ d          -9.393  15.877  29.007  0.00  0.00     0.124 C 
ATOM      8  N7  DMQ d         -10.184  16.938  28.297  0.00  0.00    -0.322 N 
ENDROOT
BRANCH   3   9
ATOM      9  C2  DMQ d          -8.105  18.656  25.730  0.00  0.00     0.166 C 
BRANCH   9  10
ATOM     10  C20 DMQ d          -6.632  18.521  25.504  0.00  0.00    -0.038 A 
ATOM     11  C29 DMQ d          -6.060  18.883  24.279  0.00  0.00     0.037 A 
ATOM     12  C28 DMQ d          -4.678  18.680  24.082  0.00  0.00     0.026 A 
ATOM     13  C23 DMQ d          -3.867  18.160  25.121  0.00  0.00     0.029 A 
ATOM     14  C22 DMQ d          -4.433  17.810  26.349  0.00  0.00     0.003 A 
ATOM     15  C21 DMQ d          -5.817  17.990  26.517  0.00  0.00     0.009 A 
BRANCH  12  16
ATOM     16  N29 DMQ d          -4.103  18.841  22.792  0.00  0.00    -0.399 N 
ATOM     17  H14 DMQ d          -3.120  18.579  22.630  0.00  0.00     0.156 HD
ATOM     18  H15 DMQ d          -4.669  19.220  22.019  0.00  0.00     0.156 HD
ENDBRANCH  12  16
ENDBRANCH   9  10
ENDBRANCH   3   9
BRANCH   4  19
ATOM     19  C31 DMQ d          -9.615  15.554  25.222  0.00  0.00     0.066 C 
BRANCH  19  20
ATOM     20  C32 DMQ d          -9.426  16.012  23.783  0.00  0.00    -0.056 A 
ATOM     21  C37 DMQ d          -8.112  16.183  23.272  0.00  0.00     0.007 A 
ATOM     22  C36 DMQ d          -7.926  16.648  21.954  0.00  0.00     0.001 A 
ATOM     23  C35 DMQ d          -9.060  16.925  21.156  0.00  0.00     0.000 A 
ATOM     24  C34 DMQ d         -10.364  16.755  21.649  0.00  0.00     0.001 A 
ATOM     25  C33 DMQ d         -10.544  16.307  22.963  0.00  0.00     0.007 A 
ENDBRANCH  19  20
ENDBRANCH   4  19
BRANCH   8  26
ATOM     26  C7  DMQ d         -11.553  17.175  28.827  0.00  0.00     0.166 C 
BRANCH  26  27
ATOM     27  C70 DMQ d         -12.496  16.003  28.990  0.00  0.00    -0.038 A 
ATOM     28  C79 DMQ d         -13.545  15.787  28.063  0.00  0.00     0.009 A 
ATOM     29  C78 DMQ d         -14.480  14.755  28.285  0.00  0.00     0.003 A 
ATOM     30  C77 DMQ d         -14.363  13.946  29.447  0.00  0.00     0.029 A 
ATOM     31  C72 DMQ d         -13.314  14.155  30.366  0.00  0.00     0.026 A 
ATOM     32  C71 DMQ d         -12.377  15.177  30.131  0.00  0.00     0.037 A 
BRANCH  31  33
ATOM     33  N79 DMQ d         -13.225  13.341  31.537  0.00  0.00    -0.399 N 
ATOM     34  H32 DMQ d         -12.303  13.043  31.889  0.00  0.00     0.156 HD
ATOM     35  H33 DMQ d         -14.082  13.053  32.031  0.00  0.00     0.156 HD
ENDBRANCH  31  33
ENDBRANCH  26  27
ENDBRANCH   8  26
BRANCH   5  36
ATOM     36  O4  DMQ d          -7.413  14.115  26.325  0.00  0.00    -0.391 OA
ATOM     37  H5  DMQ d          -7.268  14.406  25.432  0.00  0.00     0.210 HD
ENDBRANCH   5  36
BRANCH   7  38
ATOM     38  C61 DMQ d          -8.399  16.563  30.015  0.00  0.00     0.066 C 
BRANCH  38  39
ATOM     39  C62 DMQ d          -8.804  16.437  31.482  0.00  0.00    -0.056 A 
ATOM     40  C67 DMQ d          -8.475  17.464  32.408  0.00  0.00     0.007 A 
ATOM     41  C66 DMQ d          -8.928  17.397  33.744  0.00  0.00     0.001 A 
ATOM     42  C65 DMQ d          -9.710  16.289  34.146  0.00  0.00     0.000 A 
ATOM     43  C64 DMQ d         -10.031  15.259  33.239  0.00  0.00     0.001 A 
ATOM     44  C63 DMQ d          -9.574  15.336  31.912  0.00  0.00     0.007 A 
ENDBRANCH  38  39
ENDBRANCH   7  38
BRANCH   6  45
ATOM     45  O5  DMQ d          -8.112  13.928  29.015  0.00  0.00    -0.391 OA
ATOM     46  H7  DMQ d          -7.446  14.443  29.456  0.00  0.00     0.210 HD
ENDBRANCH   6  45
TORSDOF 12
