REMARK VINA RESULT:      -8.7      1.597      6.312
REMARK  12 active torsions:
REMARK  status: ('A' for Active; 'I' for Inactive)
REMARK    1  A    between atoms: N2_3  and  C2_4 
REMARK    2  A    between atoms: C2_4  and  C20_13 
REMARK    3  A    between atoms: C3_5  and  C31_20 
REMARK    4  A    between atoms: C4_6  and  O4_7 
REMARK    5  A    between atoms: C5_8  and  O5_9 
REMARK    6  A    between atoms: C6_10  and  C61_27 
REMARK    7  A    between atoms: N7_11  and  C7_12 
REMARK    8  A    between atoms: C7_12  and  C70_34 
REMARK    9  A    between atoms: C28_17  and  N29_18 
REMARK   10  A    between atoms: C31_20  and  C32_21 
REMARK   11  A    between atoms: C61_27  and  C62_28 
REMARK   12  A    between atoms: C72_36  and  N79_37 
ROOT
ATOM      1  C1  DMQ d          -8.694  15.599  27.240  0.00  0.00     0.322 C 
ATOM      2  O1  DMQ d          -8.009  14.882  26.537  0.00  0.00    -0.247 OA
ATOM      3  N2  DMQ d          -8.020  16.281  28.175  0.00  0.00    -0.322 N 
ATOM      4  C3  DMQ d          -8.684  16.809  29.403  0.00  0.00     0.124 C 
ATOM      5  C4  DMQ d          -9.706  17.893  29.245  0.00  0.00     0.172 C 
ATOM      6  C5  DMQ d         -11.021  17.446  28.653  0.00  0.00     0.172 C 
ATOM      7  C6  DMQ d         -10.911  16.873  27.252  0.00  0.00     0.124 C 
ATOM      8  N7  DMQ d         -10.055  15.651  27.072  0.00  0.00    -0.322 N 
ENDROOT
BRANCH   3   9
ATOM      9  C2  DMQ d          -6.528  16.337  28.045  0.00  0.00     0.166 C 
BRANCH   9  10
ATOM     10  C20 DMQ d          -6.016  17.314  27.033  0.00  0.00    -0.038 A 
ATOM     11  C29 DMQ d          -5.146  16.902  26.018  0.00  0.00     0.037 A 
ATOM     12  C28 DMQ d          -4.635  17.865  25.122  0.00  0.00     0.026 A 
ATOM     13  C23 DMQ d          -5.028  19.223  25.216  0.00  0.00     0.029 A 
ATOM     14  C22 DMQ d          -5.907  19.634  26.222  0.00  0.00     0.003 A 
ATOM     15  C21 DMQ d          -6.383  18.667  27.123  0.00  0.00     0.009 A 
BRANCH  12  16
ATOM     16  N29 DMQ d          -3.597  17.523  24.213  0.00  0.00    -0.399 N 
ATOM     17  H14 DMQ d          -2.713  18.053  24.218  0.00  0.00     0.156 HD
ATOM     18  H15 DMQ d          -3.727  16.745  23.551  0.00  0.00     0.156 HD
ENDBRANCH  12  16
ENDBRANCH   9  10
ENDBRANCH   3   9
BRANCH   4  19
ATOM     19  C31 DMQ d          -9.059  15.648  30.342  0.00  0.00     0.066 C 
BRANCH  19  20
ATOM     20  C32 DMQ d          -9.178  16.194  31.758  0.00  0.00    -0.056 A 
ATOM     21  C37 DMQ d          -8.112  16.959  32.302  0.00  0.00     0.007 A 
ATOM     22  C36 DMQ d          -8.194  17.433  33.627  0.00  0.00     0.001 A 
ATOM     23  C35 DMQ d          -9.350  17.147  34.390  0.00  0.00     0.000 A 
ATOM     24  C34 DMQ d         -10.412  16.397  33.861  0.00  0.00     0.001 A 
ATOM     25  C33 DMQ d         -10.321  15.916  32.549  0.00  0.00     0.007 A 
ENDBRANCH  19  20
ENDBRANCH   4  19
BRANCH   8  26
ATOM     26  C7  DMQ d         -10.731  14.487  26.440  0.00  0.00     0.166 C 
BRANCH  26  27
ATOM     27  C70 DMQ d         -11.636  13.612  27.279  0.00  0.00    -0.038 A 
ATOM     28  C79 DMQ d         -12.734  12.936  26.692  0.00  0.00     0.009 A 
ATOM     29  C78 DMQ d         -13.630  12.209  27.502  0.00  0.00     0.003 A 
ATOM     30  C77 DMQ d         -13.424  12.171  28.908  0.00  0.00     0.029 A 
ATOM     31  C72 DMQ d         -12.327  12.835  29.493  0.00  0.00     0.026 A 
ATOM     32  C71 DMQ d         -11.429  13.547  28.675  0.00  0.00     0.037 A 
BRANCH  31  33
ATOM     33  N79 DMQ d         -12.148  12.798  30.910  0.00  0.00    -0.399 N 
ATOM     34  H32 DMQ d         -11.641  13.559  31.385  0.00  0.00     0.156 HD
ATOM     35  H33 DMQ d         -12.527  12.012  31.456  0.00  0.00     0.156 HD
ENDBRANCH  31  33
ENDBRANCH  26  27
ENDBRANCH   8  26
BRANCH   5  36
ATOM     36  O4  DMQ d          -9.851  18.381  30.542  0.00  0.00    -0.391 OA
ATOM     37  H5  DMQ d          -9.441  17.780  31.153  0.00  0.00     0.210 HD
ENDBRANCH   5  36
BRANCH   7  38
ATOM     38  C61 DMQ d         -10.603  17.892  26.095  0.00  0.00     0.066 C 
BRANCH  38  39
ATOM     39  C62 DMQ d         -10.021  17.255  24.834  0.00  0.00    -0.056 A 
ATOM     40  C67 DMQ d         -10.851  16.494  23.967  0.00  0.00     0.007 A 
ATOM     41  C66 DMQ d         -10.341  15.982  22.753  0.00  0.00     0.001 A 
ATOM     42  C65 DMQ d          -8.990  16.236  22.418  0.00  0.00     0.000 A 
ATOM     43  C64 DMQ d          -8.156  16.980  23.277  0.00  0.00     0.001 A 
ATOM     44  C63 DMQ d          -8.674  17.483  24.483  0.00  0.00     0.007 A 
ENDBRANCH  38  39
ENDBRANCH   7  38
BRANCH   6  45
ATOM     45  O5  DMQ d         -11.806  18.579  28.566  0.00  0.00    -0.391 OA
ATOM     46  H7  DMQ d         -12.347  18.528  27.787  0.00  0.00     0.210 HD
ENDBRANCH   6  45
TORSDOF 12
