REMARK VINA RESULT:      -8.2      4.678     10.717
REMARK  12 active torsions:
REMARK  status: ('A' for Active; 'I' for Inactive)
REMARK    1  A    between atoms: N2_3  and  C2_4 
REMARK    2  A    between atoms: C2_4  and  C20_13 
REMARK    3  A    between atoms: C3_5  and  C31_20 
REMARK    4  A    between atoms: C4_6  and  O4_7 
REMARK    5  A    between atoms: C5_8  and  O5_9 
REMARK    6  A    between atoms: C6_10  and  C61_27 
REMARK    7  A    between atoms: N7_11  and  C7_12 
REMARK    8  A    between atoms: C7_12  and  C70_34 
REMARK    9  A    between atoms: C28_17  and  N29_18 
REMARK   10  A    between atoms: C31_20  and  C32_21 
REMARK   11  A    between atoms: C61_27  and  C62_28 
REMARK   12  A    between atoms: C72_36  and  N79_37 
ROOT
ATOM      1  C1  DMQ d         -13.289  12.782  31.249  0.00  0.00     0.322 C 
ATOM      2  O1  DMQ d         -13.739  12.275  30.240  0.00  0.00    -0.247 OA
ATOM      3  N2  DMQ d         -12.989  14.083  31.141  0.00  0.00    -0.322 N 
ATOM      4  C3  DMQ d         -12.013  14.749  32.051  0.00  0.00     0.124 C 
ATOM      5  C4  DMQ d         -12.370  14.878  33.501  0.00  0.00     0.172 C 
ATOM      6  C5  DMQ d         -12.316  13.590  34.286  0.00  0.00     0.172 C 
ATOM      7  C6  DMQ d         -13.271  12.519  33.792  0.00  0.00     0.124 C 
ATOM      8  N7  DMQ d         -13.092  12.032  32.382  0.00  0.00    -0.322 N 
ENDROOT
BRANCH   3   9
ATOM      9  C2  DMQ d         -13.523  14.815  29.947  0.00  0.00     0.166 C 
BRANCH   9  10
ATOM     10  C20 DMQ d         -12.519  15.086  28.869  0.00  0.00    -0.038 A 
ATOM     11  C29 DMQ d         -12.176  16.398  28.526  0.00  0.00     0.037 A 
ATOM     12  C28 DMQ d         -11.274  16.614  27.462  0.00  0.00     0.026 A 
ATOM     13  C23 DMQ d         -10.688  15.521  26.776  0.00  0.00     0.029 A 
ATOM     14  C22 DMQ d         -11.021  14.209  27.126  0.00  0.00     0.003 A 
ATOM     15  C21 DMQ d         -11.943  14.014  28.168  0.00  0.00     0.009 A 
BRANCH  12  16
ATOM     16  N29 DMQ d         -11.061  17.923  26.953  0.00  0.00    -0.399 N 
ATOM     17  H14 DMQ d         -10.749  18.053  25.980  0.00  0.00     0.156 HD
ATOM     18  H15 DMQ d         -11.219  18.743  27.557  0.00  0.00     0.156 HD
ENDBRANCH  12  16
ENDBRANCH   9  10
ENDBRANCH   3   9
BRANCH   4  19
ATOM     19  C31 DMQ d         -10.584  14.266  31.741  0.00  0.00     0.066 C 
BRANCH  19  20
ATOM     20  C32 DMQ d          -9.852  15.374  30.999  0.00  0.00    -0.056 A 
ATOM     21  C37 DMQ d          -8.867  15.035  30.033  0.00  0.00     0.007 A 
ATOM     22  C36 DMQ d          -8.153  16.054  29.371  0.00  0.00     0.001 A 
ATOM     23  C35 DMQ d          -8.441  17.405  29.674  0.00  0.00     0.000 A 
ATOM     24  C34 DMQ d          -9.417  17.752  30.622  0.00  0.00     0.001 A 
ATOM     25  C33 DMQ d         -10.113  16.737  31.288  0.00  0.00     0.007 A 
ENDBRANCH  19  20
ENDBRANCH   4  19
BRANCH   8  26
ATOM     26  C7  DMQ d         -12.914  10.564  32.232  0.00  0.00     0.166 C 
BRANCH  26  27
ATOM     27  C70 DMQ d         -14.094   9.647  32.471  0.00  0.00    -0.038 A 
ATOM     28  C79 DMQ d         -15.315   9.848  31.783  0.00  0.00     0.009 A 
ATOM     29  C78 DMQ d         -16.438   9.053  32.092  0.00  0.00     0.003 A 
ATOM     30  C77 DMQ d         -16.331   8.059  33.103  0.00  0.00     0.029 A 
ATOM     31  C72 DMQ d         -15.113   7.852  33.782  0.00  0.00     0.026 A 
ATOM     32  C71 DMQ d         -13.994   8.640  33.459  0.00  0.00     0.037 A 
BRANCH  31  33
ATOM     33  N79 DMQ d         -15.033   6.860  34.808  0.00  0.00    -0.399 N 
ATOM     34  H32 DMQ d         -15.877   6.592  35.333  0.00  0.00     0.156 HD
ATOM     35  H33 DMQ d         -14.130   6.412  35.021  0.00  0.00     0.156 HD
ENDBRANCH  31  33
ENDBRANCH  26  27
ENDBRANCH   8  26
BRANCH   5  36
ATOM     36  O4  DMQ d         -11.456  15.819  33.969  0.00  0.00    -0.391 OA
ATOM     37  H5  DMQ d         -10.847  15.398  34.564  0.00  0.00     0.210 HD
ENDBRANCH   5  36
BRANCH   7  38
ATOM     38  C61 DMQ d         -14.801  12.757  34.064  0.00  0.00     0.066 C 
BRANCH  38  39
ATOM     39  C62 DMQ d         -15.436  11.745  35.017  0.00  0.00    -0.056 A 
ATOM     40  C67 DMQ d         -16.818  11.432  34.914  0.00  0.00     0.007 A 
ATOM     41  C66 DMQ d         -17.389  10.430  35.729  0.00  0.00     0.001 A 
ATOM     42  C65 DMQ d         -16.563   9.747  36.652  0.00  0.00     0.000 A 
ATOM     43  C64 DMQ d         -15.194  10.059  36.771  0.00  0.00     0.001 A 
ATOM     44  C63 DMQ d         -14.637  11.059  35.955  0.00  0.00     0.007 A 
ENDBRANCH  38  39
ENDBRANCH   7  38
BRANCH   6  45
ATOM     45  O5  DMQ d         -12.700  13.911  35.573  0.00  0.00    -0.391 OA
ATOM     46  H7  DMQ d         -11.939  14.195  36.067  0.00  0.00     0.210 HD
ENDBRANCH   6  45
TORSDOF 12
