REMARK VINA RESULT:      -8.1      3.593      6.046
REMARK  12 active torsions:
REMARK  status: ('A' for Active; 'I' for Inactive)
REMARK    1  A    between atoms: N2_3  and  C2_4 
REMARK    2  A    between atoms: C2_4  and  C20_13 
REMARK    3  A    between atoms: C3_5  and  C31_20 
REMARK    4  A    between atoms: C4_6  and  O4_7 
REMARK    5  A    between atoms: C5_8  and  O5_9 
REMARK    6  A    between atoms: C6_10  and  C61_27 
REMARK    7  A    between atoms: N7_11  and  C7_12 
REMARK    8  A    between atoms: C7_12  and  C70_34 
REMARK    9  A    between atoms: C28_17  and  N29_18 
REMARK   10  A    between atoms: C31_20  and  C32_21 
REMARK   11  A    between atoms: C61_27  and  C62_28 
REMARK   12  A    between atoms: C72_36  and  N79_37 
ROOT
ATOM      1  C1  DMQ d         -11.285  14.542  31.759  0.00  0.00     0.322 C 
ATOM      2  O1  DMQ d         -10.606  15.034  32.639  0.00  0.00    -0.247 OA
ATOM      3  N2  DMQ d         -12.502  14.139  32.146  0.00  0.00    -0.322 N 
ATOM      4  C3  DMQ d         -13.273  13.110  31.388  0.00  0.00     0.124 C 
ATOM      5  C4  DMQ d         -13.746  13.453  30.008  0.00  0.00     0.172 C 
ATOM      6  C5  DMQ d         -12.662  13.501  28.959  0.00  0.00     0.172 C 
ATOM      7  C6  DMQ d         -11.587  14.540  29.220  0.00  0.00     0.124 C 
ATOM      8  N7  DMQ d         -10.789  14.404  30.486  0.00  0.00    -0.322 N 
ENDROOT
BRANCH   3   9
ATOM      9  C2  DMQ d         -12.994  14.615  33.479  0.00  0.00     0.166 C 
BRANCH   9  10
ATOM     10  C20 DMQ d         -13.030  13.570  34.550  0.00  0.00    -0.038 A 
ATOM     11  C29 DMQ d         -14.249  13.111  35.060  0.00  0.00     0.037 A 
ATOM     12  C28 DMQ d         -14.241  12.172  36.114  0.00  0.00     0.026 A 
ATOM     13  C23 DMQ d         -13.019  11.665  36.623  0.00  0.00     0.029 A 
ATOM     14  C22 DMQ d         -11.800  12.114  36.107  0.00  0.00     0.003 A 
ATOM     15  C21 DMQ d         -11.827  13.070  35.078  0.00  0.00     0.009 A 
BRANCH  12  16
ATOM     16  N29 DMQ d         -15.445  11.840  36.792  0.00  0.00    -0.399 N 
ATOM     17  H14 DMQ d         -15.409  11.320  37.681  0.00  0.00     0.156 HD
ATOM     18  H15 DMQ d         -16.353  12.119  36.395  0.00  0.00     0.156 HD
ENDBRANCH  12  16
ENDBRANCH   9  10
ENDBRANCH   3   9
BRANCH   4  19
ATOM     19  C31 DMQ d         -12.622  11.726  31.563  0.00  0.00     0.066 C 
BRANCH  19  20
ATOM     20  C32 DMQ d         -13.526  10.878  32.447  0.00  0.00    -0.056 A 
ATOM     21  C37 DMQ d         -12.948   9.897  33.296  0.00  0.00     0.007 A 
ATOM     22  C36 DMQ d         -13.779   9.077  34.087  0.00  0.00     0.001 A 
ATOM     23  C35 DMQ d         -15.180   9.256  34.028  0.00  0.00     0.000 A 
ATOM     24  C34 DMQ d         -15.762  10.227  33.196  0.00  0.00     0.001 A 
ATOM     25  C33 DMQ d         -14.934  11.029  32.401  0.00  0.00     0.007 A 
ENDBRANCH  19  20
ENDBRANCH   4  19
BRANCH   8  26
ATOM     26  C7  DMQ d          -9.315  14.344  30.308  0.00  0.00     0.166 C 
BRANCH  26  27
ATOM     27  C70 DMQ d          -8.590  15.542  29.733  0.00  0.00    -0.038 A 
ATOM     28  C79 DMQ d          -8.626  16.793  30.396  0.00  0.00     0.009 A 
ATOM     29  C78 DMQ d          -8.035  17.926  29.798  0.00  0.00     0.003 A 
ATOM     30  C77 DMQ d          -7.416  17.798  28.526  0.00  0.00     0.029 A 
ATOM     31  C72 DMQ d          -7.372  16.552  27.869  0.00  0.00     0.026 A 
ATOM     32  C71 DMQ d          -7.951  15.424  28.479  0.00  0.00     0.037 A 
BRANCH  31  33
ATOM     33  N79 DMQ d          -6.759  16.449  26.582  0.00  0.00    -0.399 N 
ATOM     34  H32 DMQ d          -5.751  16.631  26.474  0.00  0.00     0.156 HD
ATOM     35  H33 DMQ d          -7.327  16.193  25.761  0.00  0.00     0.156 HD
ENDBRANCH  31  33
ENDBRANCH  26  27
ENDBRANCH   8  26
BRANCH   5  36
ATOM     36  O4  DMQ d         -14.692  12.465  29.744  0.00  0.00    -0.391 OA
ATOM     37  H5  DMQ d         -14.250  11.635  29.603  0.00  0.00     0.210 HD
ENDBRANCH   5  36
BRANCH   7  38
ATOM     38  C61 DMQ d         -11.999  16.045  29.030  0.00  0.00     0.066 C 
BRANCH  38  39
ATOM     39  C62 DMQ d         -11.337  16.733  27.838  0.00  0.00    -0.056 A 
ATOM     40  C67 DMQ d         -10.966  18.103  27.915  0.00  0.00     0.007 A 
ATOM     41  C66 DMQ d         -10.271  18.719  26.851  0.00  0.00     0.001 A 
ATOM     42  C65 DMQ d          -9.953  17.950  25.707  0.00  0.00     0.000 A 
ATOM     43  C64 DMQ d         -10.327  16.594  25.615  0.00  0.00     0.001 A 
ATOM     44  C63 DMQ d         -11.021  15.993  26.680  0.00  0.00     0.007 A 
ENDBRANCH  38  39
ENDBRANCH   7  38
BRANCH   6  45
ATOM     45  O5  DMQ d         -13.287  13.854  27.779  0.00  0.00    -0.391 OA
ATOM     46  H7  DMQ d         -13.596  13.071  27.339  0.00  0.00     0.210 HD
ENDBRANCH   6  45
TORSDOF 12
