MODEL 1
REMARK VINA RESULT:     -12.8      0.000      0.000
REMARK  12 active torsions:
REMARK  status: ('A' for Active; 'I' for Inactive)
REMARK    1  A    between atoms: N2_3  and  C2_4 
REMARK    2  A    between atoms: C2_4  and  C20_13 
REMARK    3  A    between atoms: C3_5  and  C31_20 
REMARK    4  A    between atoms: C4_6  and  O4_7 
REMARK    5  A    between atoms: C5_8  and  O5_9 
REMARK    6  A    between atoms: C6_10  and  C61_27 
REMARK    7  A    between atoms: N7_11  and  C7_12 
REMARK    8  A    between atoms: C7_12  and  C70_34 
REMARK    9  A    between atoms: C28_17  and  N29_18 
REMARK   10  A    between atoms: C31_20  and  C32_21 
REMARK   11  A    between atoms: C61_27  and  C62_28 
REMARK   12  A    between atoms: C72_36  and  N79_37 
ROOT
ATOM      1  C1  DMQ d          -8.753  15.467  27.568  0.00  0.00     0.322 C 
ATOM      2  O1  DMQ d          -8.062  14.471  27.655  0.00  0.00    -0.247 OA
ATOM      3  N2  DMQ d          -9.647  15.620  28.553  0.00  0.00    -0.322 N 
ATOM      4  C3  DMQ d         -10.869  16.461  28.390  0.00  0.00     0.124 C 
ATOM      5  C4  DMQ d         -10.694  17.939  28.221  0.00  0.00     0.172 C 
ATOM      6  C5  DMQ d         -10.147  18.366  26.881  0.00  0.00     0.172 C 
ATOM      7  C6  DMQ d          -8.766  17.821  26.569  0.00  0.00     0.124 C 
ATOM      8  N7  DMQ d          -8.612  16.328  26.507  0.00  0.00    -0.322 N 
ENDROOT
BRANCH   3   9
ATOM      9  C2  DMQ d          -9.484  14.762  29.771  0.00  0.00     0.166 C 
BRANCH   9  10
ATOM     10  C20 DMQ d          -9.293  15.512  31.053  0.00  0.00    -0.038 A 
ATOM     11  C29 DMQ d         -10.112  15.257  32.158  0.00  0.00     0.037 A 
ATOM     12  C28 DMQ d          -9.944  16.029  33.327  0.00  0.00     0.026 A 
ATOM     13  C23 DMQ d          -8.933  17.019  33.402  0.00  0.00     0.029 A 
ATOM     14  C22 DMQ d          -8.106  17.267  32.303  0.00  0.00     0.003 A 
ATOM     15  C21 DMQ d          -8.307  16.509  31.137  0.00  0.00     0.009 A 
BRANCH  12  16
ATOM     16  N29 DMQ d         -10.884  15.941  34.389  0.00  0.00    -0.399 N 
ATOM     17  H14 DMQ d         -11.302  16.798  34.779  0.00  0.00     0.156 HD
ATOM     18  H15 DMQ d         -11.148  15.021  34.769  0.00  0.00     0.156 HD
ENDBRANCH  12  16
ENDBRANCH   9  10
ENDBRANCH   3   9
BRANCH   4  19
ATOM     19  C31 DMQ d         -11.858  15.777  27.428  0.00  0.00     0.066 C 
BRANCH  19  20
ATOM     20  C32 DMQ d         -12.410  14.533  28.110  0.00  0.00    -0.056 A 
ATOM     21  C37 DMQ d         -12.075  13.251  27.600  0.00  0.00     0.007 A 
ATOM     22  C36 DMQ d         -12.615  12.094  28.198  0.00  0.00     0.001 A 
ATOM     23  C35 DMQ d         -13.477  12.234  29.311  0.00  0.00     0.000 A 
ATOM     24  C34 DMQ d         -13.811  13.496  29.827  0.00  0.00     0.001 A 
ATOM     25  C33 DMQ d         -13.283  14.643  29.221  0.00  0.00     0.007 A 
ENDBRANCH  19  20
ENDBRANCH   4  19
BRANCH   8  26
ATOM     26  C7  DMQ d          -8.037  15.798  25.243  0.00  0.00     0.166 C 
BRANCH  26  27
ATOM     27  C70 DMQ d          -8.531  16.342  23.920  0.00  0.00    -0.038 A 
ATOM     28  C79 DMQ d          -9.828  16.022  23.447  0.00  0.00     0.009 A 
ATOM     29  C78 DMQ d         -10.236  16.449  22.167  0.00  0.00     0.003 A 
ATOM     30  C77 DMQ d          -9.333  17.191  21.358  0.00  0.00     0.029 A 
ATOM     31  C72 DMQ d          -8.046  17.517  21.831  0.00  0.00     0.026 A 
ATOM     32  C71 DMQ d          -7.651  17.100  23.116  0.00  0.00     0.037 A 
BRANCH  31  33
ATOM     33  N79 DMQ d          -7.147  18.248  20.995  0.00  0.00    -0.399 N 
ATOM     34  H32 DMQ d          -7.507  18.767  20.181  0.00  0.00     0.156 HD
ATOM     35  H33 DMQ d          -6.139  18.257  21.207  0.00  0.00     0.156 HD
ENDBRANCH  31  33
ENDBRANCH  26  27
ENDBRANCH   8  26
BRANCH   5  36
ATOM     36  O4  DMQ d         -11.975  18.437  28.450  0.00  0.00    -0.391 OA
ATOM     37  H5  DMQ d         -12.612  17.750  28.295  0.00  0.00     0.210 HD
ENDBRANCH   5  36
BRANCH   7  38
ATOM     38  C61 DMQ d          -7.566  18.429  27.383  0.00  0.00     0.066 C 
BRANCH  38  39
ATOM     39  C62 DMQ d          -6.217  18.347  26.671  0.00  0.00    -0.056 A 
ATOM     40  C67 DMQ d          -5.259  17.372  27.061  0.00  0.00     0.007 A 
ATOM     41  C66 DMQ d          -4.049  17.230  26.346  0.00  0.00     0.001 A 
ATOM     42  C65 DMQ d          -3.805  18.076  25.239  0.00  0.00     0.000 A 
ATOM     43  C64 DMQ d          -4.744  19.055  24.853  0.00  0.00     0.001 A 
ATOM     44  C63 DMQ d          -5.943  19.188  25.573  0.00  0.00     0.007 A 
ENDBRANCH  38  39
ENDBRANCH   7  38
BRANCH   6  45
ATOM     45  O5  DMQ d         -10.036  19.742  26.934  0.00  0.00    -0.391 OA
ATOM     46  H7  DMQ d          -9.383  19.981  27.582  0.00  0.00     0.210 HD
ENDBRANCH   6  45
TORSDOF 12
ENDMDL
MODEL 2
REMARK VINA RESULT:     -12.4      0.362      8.563
REMARK  12 active torsions:
REMARK  status: ('A' for Active; 'I' for Inactive)
REMARK    1  A    between atoms: N2_3  and  C2_4 
REMARK    2  A    between atoms: C2_4  and  C20_13 
REMARK    3  A    between atoms: C3_5  and  C31_20 
REMARK    4  A    between atoms: C4_6  and  O4_7 
REMARK    5  A    between atoms: C5_8  and  O5_9 
REMARK    6  A    between atoms: C6_10  and  C61_27 
REMARK    7  A    between atoms: N7_11  and  C7_12 
REMARK    8  A    between atoms: C7_12  and  C70_34 
REMARK    9  A    between atoms: C28_17  and  N29_18 
REMARK   10  A    between atoms: C31_20  and  C32_21 
REMARK   11  A    between atoms: C61_27  and  C62_28 
REMARK   12  A    between atoms: C72_36  and  N79_37 
ROOT
ATOM      1  C1  DMQ d          -8.790  15.304  27.545  0.00  0.00     0.322 C 
ATOM      2  O1  DMQ d          -8.246  14.221  27.466  0.00  0.00    -0.247 OA
ATOM      3  N2  DMQ d          -8.543  16.135  26.523  0.00  0.00    -0.322 N 
ATOM      4  C3  DMQ d          -8.697  17.613  26.650  0.00  0.00     0.124 C 
ATOM      5  C4  DMQ d         -10.072  18.168  26.861  0.00  0.00     0.172 C 
ATOM      6  C5  DMQ d         -10.649  17.929  28.236  0.00  0.00     0.172 C 
ATOM      7  C6  DMQ d         -10.811  16.465  28.599  0.00  0.00     0.124 C 
ATOM      8  N7  DMQ d          -9.568  15.621  28.631  0.00  0.00    -0.322 N 
ENDROOT
BRANCH   3   9
ATOM      9  C2  DMQ d          -7.919  15.547  25.294  0.00  0.00     0.166 C 
BRANCH   9  10
ATOM     10  C20 DMQ d          -8.449  16.078  23.999  0.00  0.00    -0.038 A 
ATOM     11  C29 DMQ d          -7.625  16.811  23.136  0.00  0.00     0.037 A 
ATOM     12  C28 DMQ d          -8.178  17.350  21.956  0.00  0.00     0.026 A 
ATOM     13  C23 DMQ d          -9.535  17.120  21.620  0.00  0.00     0.029 A 
ATOM     14  C22 DMQ d         -10.356  16.379  22.474  0.00  0.00     0.003 A 
ATOM     15  C21 DMQ d          -9.797  15.874  23.660  0.00  0.00     0.009 A 
BRANCH  12  16
ATOM     16  N29 DMQ d          -7.432  18.265  21.164  0.00  0.00    -0.399 N 
ATOM     17  H14 DMQ d          -7.284  19.230  21.494  0.00  0.00     0.156 HD
ATOM     18  H15 DMQ d          -7.040  17.964  20.261  0.00  0.00     0.156 HD
ENDBRANCH  12  16
ENDBRANCH   9  10
ENDBRANCH   3   9
BRANCH   4  19
ATOM     19  C31 DMQ d          -7.584  18.186  27.547  0.00  0.00     0.066 C 
BRANCH  19  20
ATOM     20  C32 DMQ d          -6.283  18.189  26.758  0.00  0.00    -0.056 A 
ATOM     21  C37 DMQ d          -6.149  19.053  25.638  0.00  0.00     0.007 A 
ATOM     22  C36 DMQ d          -4.964  19.032  24.875  0.00  0.00     0.001 A 
ATOM     23  C35 DMQ d          -3.919  18.155  25.248  0.00  0.00     0.000 A 
ATOM     24  C34 DMQ d          -4.039  17.302  26.357  0.00  0.00     0.001 A 
ATOM     25  C33 DMQ d          -5.223  17.315  27.104  0.00  0.00     0.007 A 
ENDBRANCH  19  20
ENDBRANCH   4  19
BRANCH   8  26
ATOM     26  C7  DMQ d          -9.319  14.901  29.908  0.00  0.00     0.166 C 
BRANCH  26  27
ATOM     27  C70 DMQ d          -9.296  15.681  31.205  0.00  0.00    -0.038 A 
ATOM     28  C79 DMQ d          -8.338  16.702  31.417  0.00  0.00     0.009 A 
ATOM     29  C78 DMQ d          -8.261  17.348  32.667  0.00  0.00     0.003 A 
ATOM     30  C77 DMQ d          -9.145  16.958  33.709  0.00  0.00     0.029 A 
ATOM     31  C72 DMQ d         -10.105  15.948  33.497  0.00  0.00     0.026 A 
ATOM     32  C71 DMQ d         -10.185  15.318  32.242  0.00  0.00     0.037 A 
BRANCH  31  33
ATOM     33  N79 DMQ d         -10.972  15.558  34.564  0.00  0.00    -0.399 N 
ATOM     34  H32 DMQ d         -10.937  14.596  34.932  0.00  0.00     0.156 HD
ATOM     35  H33 DMQ d         -11.632  16.239  34.966  0.00  0.00     0.156 HD
ENDBRANCH  31  33
ENDBRANCH  26  27
ENDBRANCH   8  26
BRANCH   5  36
ATOM     36  O4  DMQ d          -9.913  19.524  26.585  0.00  0.00    -0.391 OA
ATOM     37  H5  DMQ d         -10.704  19.858  26.180  0.00  0.00     0.210 HD
ENDBRANCH   5  36
BRANCH   7  38
ATOM     38  C61 DMQ d         -11.950  15.675  27.856  0.00  0.00     0.066 C 
BRANCH  38  39
ATOM     39  C62 DMQ d         -12.399  14.400  28.569  0.00  0.00    -0.056 A 
ATOM     40  C67 DMQ d         -12.171  13.129  27.977  0.00  0.00     0.007 A 
ATOM     41  C66 DMQ d         -12.499  11.944  28.672  0.00  0.00     0.001 A 
ATOM     42  C65 DMQ d         -13.062  12.045  29.966  0.00  0.00     0.000 A 
ATOM     43  C64 DMQ d         -13.303  13.302  30.557  0.00  0.00     0.001 A 
ATOM     44  C63 DMQ d         -12.974  14.474  29.854  0.00  0.00     0.007 A 
ENDBRANCH  38  39
ENDBRANCH   7  38
BRANCH   6  45
ATOM     45  O5  DMQ d         -11.914  18.484  28.221  0.00  0.00    -0.391 OA
ATOM     46  H7  DMQ d         -12.521  17.897  28.657  0.00  0.00     0.210 HD
ENDBRANCH   6  45
TORSDOF 12
ENDMDL
MODEL 3
REMARK VINA RESULT:      -9.4      1.500      5.133
REMARK  12 active torsions:
REMARK  status: ('A' for Active; 'I' for Inactive)
REMARK    1  A    between atoms: N2_3  and  C2_4 
REMARK    2  A    between atoms: C2_4  and  C20_13 
REMARK    3  A    between atoms: C3_5  and  C31_20 
REMARK    4  A    between atoms: C4_6  and  O4_7 
REMARK    5  A    between atoms: C5_8  and  O5_9 
REMARK    6  A    between atoms: C6_10  and  C61_27 
REMARK    7  A    between atoms: N7_11  and  C7_12 
REMARK    8  A    between atoms: C7_12  and  C70_34 
REMARK    9  A    between atoms: C28_17  and  N29_18 
REMARK   10  A    between atoms: C31_20  and  C32_21 
REMARK   11  A    between atoms: C61_27  and  C62_28 
REMARK   12  A    between atoms: C72_36  and  N79_37 
ROOT
ATOM      1  C1  DMQ d          -9.995  17.695  27.669  0.00  0.00     0.322 C 
ATOM      2  O1  DMQ d         -10.667  18.698  27.534  0.00  0.00    -0.247 OA
ATOM      3  N2  DMQ d         -10.378  16.891  28.669  0.00  0.00    -0.322 N 
ATOM      4  C3  DMQ d          -9.445  15.910  29.297  0.00  0.00     0.124 C 
ATOM      5  C4  DMQ d          -8.957  14.763  28.466  0.00  0.00     0.172 C 
ATOM      6  C5  DMQ d          -7.951  15.132  27.404  0.00  0.00     0.172 C 
ATOM      7  C6  DMQ d          -8.469  16.110  26.366  0.00  0.00     0.124 C 
ATOM      8  N7  DMQ d          -8.916  17.459  26.853  0.00  0.00    -0.322 N 
ENDROOT
BRANCH   3   9
ATOM      9  C2  DMQ d         -11.727  17.138  29.274  0.00  0.00     0.166 C 
BRANCH   9  10
ATOM     10  C20 DMQ d         -12.634  15.948  29.307  0.00  0.00    -0.038 A 
ATOM     11  C29 DMQ d         -12.604  15.057  30.385  0.00  0.00     0.037 A 
ATOM     12  C28 DMQ d         -13.428  13.912  30.350  0.00  0.00     0.026 A 
ATOM     13  C23 DMQ d         -14.307  13.685  29.262  0.00  0.00     0.029 A 
ATOM     14  C22 DMQ d         -14.347  14.581  28.190  0.00  0.00     0.003 A 
ATOM     15  C21 DMQ d         -13.498  15.700  28.228  0.00  0.00     0.009 A 
BRANCH  12  16
ATOM     16  N29 DMQ d         -13.277  12.886  31.322  0.00  0.00    -0.399 N 
ATOM     17  H14 DMQ d         -12.757  12.028  31.088  0.00  0.00     0.156 HD
ATOM     18  H15 DMQ d         -13.687  13.000  32.260  0.00  0.00     0.156 HD
ENDBRANCH  12  16
ENDBRANCH   9  10
ENDBRANCH   3   9
BRANCH   4  19
ATOM     19  C31 DMQ d          -8.382  16.649  30.132  0.00  0.00     0.066 C 
BRANCH  19  20
ATOM     20  C32 DMQ d          -8.806  16.611  31.593  0.00  0.00    -0.056 A 
ATOM     21  C37 DMQ d          -9.699  15.598  32.034  0.00  0.00     0.007 A 
ATOM     22  C36 DMQ d         -10.131  15.579  33.376  0.00  0.00     0.001 A 
ATOM     23  C35 DMQ d          -9.654  16.568  34.267  0.00  0.00     0.000 A 
ATOM     24  C34 DMQ d          -8.766  17.571  33.843  0.00  0.00     0.001 A 
ATOM     25  C33 DMQ d          -8.351  17.594  32.506  0.00  0.00     0.007 A 
ENDBRANCH  19  20
ENDBRANCH   4  19
BRANCH   8  26
ATOM     26  C7  DMQ d          -8.261  18.623  26.199  0.00  0.00     0.166 C 
BRANCH  26  27
ATOM     27  C70 DMQ d          -6.870  18.462  25.624  0.00  0.00    -0.038 A 
ATOM     28  C79 DMQ d          -5.804  17.996  26.433  0.00  0.00     0.009 A 
ATOM     29  C78 DMQ d          -4.494  17.951  25.915  0.00  0.00     0.003 A 
ATOM     30  C77 DMQ d          -4.256  18.385  24.583  0.00  0.00     0.029 A 
ATOM     31  C72 DMQ d          -5.317  18.842  23.774  0.00  0.00     0.026 A 
ATOM     32  C71 DMQ d          -6.624  18.870  24.294  0.00  0.00     0.037 A 
BRANCH  31  33
ATOM     33  N79 DMQ d          -5.052  19.291  22.444  0.00  0.00    -0.399 N 
ATOM     34  H32 DMQ d          -4.098  19.232  22.060  0.00  0.00     0.156 HD
ATOM     35  H33 DMQ d          -5.816  19.674  21.869  0.00  0.00     0.156 HD
ENDBRANCH  31  33
ENDBRANCH  26  27
ENDBRANCH   8  26
BRANCH   5  36
ATOM     36  O4  DMQ d          -8.428  13.889  29.413  0.00  0.00    -0.391 OA
ATOM     37  H5  DMQ d          -8.895  13.993  30.234  0.00  0.00     0.210 HD
ENDBRANCH   5  36
BRANCH   7  38
ATOM     38  C61 DMQ d          -9.524  15.558  25.339  0.00  0.00     0.066 C 
BRANCH  38  39
ATOM     39  C62 DMQ d          -9.255  15.951  23.888  0.00  0.00    -0.056 A 
ATOM     40  C67 DMQ d         -10.321  16.382  23.052  0.00  0.00     0.007 A 
ATOM     41  C66 DMQ d         -10.065  16.835  21.739  0.00  0.00     0.001 A 
ATOM     42  C65 DMQ d          -8.731  16.848  21.269  0.00  0.00     0.000 A 
ATOM     43  C64 DMQ d          -7.669  16.411  22.086  0.00  0.00     0.001 A 
ATOM     44  C63 DMQ d          -7.936  15.960  23.390  0.00  0.00     0.007 A 
ENDBRANCH  38  39
ENDBRANCH   7  38
BRANCH   6  45
ATOM     45  O5  DMQ d          -7.651  13.959  26.739  0.00  0.00    -0.391 OA
ATOM     46  H7  DMQ d          -8.314  13.307  26.934  0.00  0.00     0.210 HD
ENDBRANCH   6  45
TORSDOF 12
ENDMDL
MODEL 4
REMARK VINA RESULT:      -9.3      1.535      7.643
REMARK  12 active torsions:
REMARK  status: ('A' for Active; 'I' for Inactive)
REMARK    1  A    between atoms: N2_3  and  C2_4 
REMARK    2  A    between atoms: C2_4  and  C20_13 
REMARK    3  A    between atoms: C3_5  and  C31_20 
REMARK    4  A    between atoms: C4_6  and  O4_7 
REMARK    5  A    between atoms: C5_8  and  O5_9 
REMARK    6  A    between atoms: C6_10  and  C61_27 
REMARK    7  A    between atoms: N7_11  and  C7_12 
REMARK    8  A    between atoms: C7_12  and  C70_34 
REMARK    9  A    between atoms: C28_17  and  N29_18 
REMARK   10  A    between atoms: C31_20  and  C32_21 
REMARK   11  A    between atoms: C61_27  and  C62_28 
REMARK   12  A    between atoms: C72_36  and  N79_37 
ROOT
ATOM      1  C1  DMQ d          -9.683  17.821  27.372  0.00  0.00     0.322 C 
ATOM      2  O1  DMQ d         -10.107  18.958  27.307  0.00  0.00    -0.247 OA
ATOM      3  N2  DMQ d          -8.740  17.518  26.470  0.00  0.00    -0.322 N 
ATOM      4  C3  DMQ d          -8.453  16.111  26.066  0.00  0.00     0.124 C 
ATOM      5  C4  DMQ d          -7.873  15.184  27.090  0.00  0.00     0.172 C 
ATOM      6  C5  DMQ d          -8.835  14.743  28.166  0.00  0.00     0.172 C 
ATOM      7  C6  DMQ d          -9.393  15.877  29.007  0.00  0.00     0.124 C 
ATOM      8  N7  DMQ d         -10.184  16.938  28.297  0.00  0.00    -0.322 N 
ENDROOT
BRANCH   3   9
ATOM      9  C2  DMQ d          -8.105  18.656  25.730  0.00  0.00     0.166 C 
BRANCH   9  10
ATOM     10  C20 DMQ d          -6.632  18.521  25.504  0.00  0.00    -0.038 A 
ATOM     11  C29 DMQ d          -6.060  18.883  24.279  0.00  0.00     0.037 A 
ATOM     12  C28 DMQ d          -4.678  18.680  24.082  0.00  0.00     0.026 A 
ATOM     13  C23 DMQ d          -3.867  18.160  25.121  0.00  0.00     0.029 A 
ATOM     14  C22 DMQ d          -4.433  17.810  26.349  0.00  0.00     0.003 A 
ATOM     15  C21 DMQ d          -5.817  17.990  26.517  0.00  0.00     0.009 A 
BRANCH  12  16
ATOM     16  N29 DMQ d          -4.103  18.841  22.792  0.00  0.00    -0.399 N 
ATOM     17  H14 DMQ d          -3.120  18.579  22.630  0.00  0.00     0.156 HD
ATOM     18  H15 DMQ d          -4.669  19.220  22.019  0.00  0.00     0.156 HD
ENDBRANCH  12  16
ENDBRANCH   9  10
ENDBRANCH   3   9
BRANCH   4  19
ATOM     19  C31 DMQ d          -9.615  15.554  25.222  0.00  0.00     0.066 C 
BRANCH  19  20
ATOM     20  C32 DMQ d          -9.426  16.012  23.783  0.00  0.00    -0.056 A 
ATOM     21  C37 DMQ d          -8.112  16.183  23.272  0.00  0.00     0.007 A 
ATOM     22  C36 DMQ d          -7.926  16.648  21.954  0.00  0.00     0.001 A 
ATOM     23  C35 DMQ d          -9.060  16.925  21.156  0.00  0.00     0.000 A 
ATOM     24  C34 DMQ d         -10.364  16.755  21.649  0.00  0.00     0.001 A 
ATOM     25  C33 DMQ d         -10.544  16.307  22.963  0.00  0.00     0.007 A 
ENDBRANCH  19  20
ENDBRANCH   4  19
BRANCH   8  26
ATOM     26  C7  DMQ d         -11.553  17.175  28.827  0.00  0.00     0.166 C 
BRANCH  26  27
ATOM     27  C70 DMQ d         -12.496  16.003  28.990  0.00  0.00    -0.038 A 
ATOM     28  C79 DMQ d         -13.545  15.787  28.063  0.00  0.00     0.009 A 
ATOM     29  C78 DMQ d         -14.480  14.755  28.285  0.00  0.00     0.003 A 
ATOM     30  C77 DMQ d         -14.363  13.946  29.447  0.00  0.00     0.029 A 
ATOM     31  C72 DMQ d         -13.314  14.155  30.366  0.00  0.00     0.026 A 
ATOM     32  C71 DMQ d         -12.377  15.177  30.131  0.00  0.00     0.037 A 
BRANCH  31  33
ATOM     33  N79 DMQ d         -13.225  13.341  31.537  0.00  0.00    -0.399 N 
ATOM     34  H32 DMQ d         -12.303  13.043  31.889  0.00  0.00     0.156 HD
ATOM     35  H33 DMQ d         -14.082  13.053  32.031  0.00  0.00     0.156 HD
ENDBRANCH  31  33
ENDBRANCH  26  27
ENDBRANCH   8  26
BRANCH   5  36
ATOM     36  O4  DMQ d          -7.413  14.115  26.325  0.00  0.00    -0.391 OA
ATOM     37  H5  DMQ d          -7.268  14.406  25.432  0.00  0.00     0.210 HD
ENDBRANCH   5  36
BRANCH   7  38
ATOM     38  C61 DMQ d          -8.399  16.563  30.015  0.00  0.00     0.066 C 
BRANCH  38  39
ATOM     39  C62 DMQ d          -8.804  16.437  31.482  0.00  0.00    -0.056 A 
ATOM     40  C67 DMQ d          -8.475  17.464  32.408  0.00  0.00     0.007 A 
ATOM     41  C66 DMQ d          -8.928  17.397  33.744  0.00  0.00     0.001 A 
ATOM     42  C65 DMQ d          -9.710  16.289  34.146  0.00  0.00     0.000 A 
ATOM     43  C64 DMQ d         -10.031  15.259  33.239  0.00  0.00     0.001 A 
ATOM     44  C63 DMQ d          -9.574  15.336  31.912  0.00  0.00     0.007 A 
ENDBRANCH  38  39
ENDBRANCH   7  38
BRANCH   6  45
ATOM     45  O5  DMQ d          -8.112  13.928  29.015  0.00  0.00    -0.391 OA
ATOM     46  H7  DMQ d          -7.446  14.443  29.456  0.00  0.00     0.210 HD
ENDBRANCH   6  45
TORSDOF 12
ENDMDL
MODEL 5
REMARK VINA RESULT:      -8.7      1.597      6.312
REMARK  12 active torsions:
REMARK  status: ('A' for Active; 'I' for Inactive)
REMARK    1  A    between atoms: N2_3  and  C2_4 
REMARK    2  A    between atoms: C2_4  and  C20_13 
REMARK    3  A    between atoms: C3_5  and  C31_20 
REMARK    4  A    between atoms: C4_6  and  O4_7 
REMARK    5  A    between atoms: C5_8  and  O5_9 
REMARK    6  A    between atoms: C6_10  and  C61_27 
REMARK    7  A    between atoms: N7_11  and  C7_12 
REMARK    8  A    between atoms: C7_12  and  C70_34 
REMARK    9  A    between atoms: C28_17  and  N29_18 
REMARK   10  A    between atoms: C31_20  and  C32_21 
REMARK   11  A    between atoms: C61_27  and  C62_28 
REMARK   12  A    between atoms: C72_36  and  N79_37 
ROOT
ATOM      1  C1  DMQ d          -8.694  15.599  27.240  0.00  0.00     0.322 C 
ATOM      2  O1  DMQ d          -8.009  14.882  26.537  0.00  0.00    -0.247 OA
ATOM      3  N2  DMQ d          -8.020  16.281  28.175  0.00  0.00    -0.322 N 
ATOM      4  C3  DMQ d          -8.684  16.809  29.403  0.00  0.00     0.124 C 
ATOM      5  C4  DMQ d          -9.706  17.893  29.245  0.00  0.00     0.172 C 
ATOM      6  C5  DMQ d         -11.021  17.446  28.653  0.00  0.00     0.172 C 
ATOM      7  C6  DMQ d         -10.911  16.873  27.252  0.00  0.00     0.124 C 
ATOM      8  N7  DMQ d         -10.055  15.651  27.072  0.00  0.00    -0.322 N 
ENDROOT
BRANCH   3   9
ATOM      9  C2  DMQ d          -6.528  16.337  28.045  0.00  0.00     0.166 C 
BRANCH   9  10
ATOM     10  C20 DMQ d          -6.016  17.314  27.033  0.00  0.00    -0.038 A 
ATOM     11  C29 DMQ d          -5.146  16.902  26.018  0.00  0.00     0.037 A 
ATOM     12  C28 DMQ d          -4.635  17.865  25.122  0.00  0.00     0.026 A 
ATOM     13  C23 DMQ d          -5.028  19.223  25.216  0.00  0.00     0.029 A 
ATOM     14  C22 DMQ d          -5.907  19.634  26.222  0.00  0.00     0.003 A 
ATOM     15  C21 DMQ d          -6.383  18.667  27.123  0.00  0.00     0.009 A 
BRANCH  12  16
ATOM     16  N29 DMQ d          -3.597  17.523  24.213  0.00  0.00    -0.399 N 
ATOM     17  H14 DMQ d          -2.713  18.053  24.218  0.00  0.00     0.156 HD
ATOM     18  H15 DMQ d          -3.727  16.745  23.551  0.00  0.00     0.156 HD
ENDBRANCH  12  16
ENDBRANCH   9  10
ENDBRANCH   3   9
BRANCH   4  19
ATOM     19  C31 DMQ d          -9.059  15.648  30.342  0.00  0.00     0.066 C 
BRANCH  19  20
ATOM     20  C32 DMQ d          -9.178  16.194  31.758  0.00  0.00    -0.056 A 
ATOM     21  C37 DMQ d          -8.112  16.959  32.302  0.00  0.00     0.007 A 
ATOM     22  C36 DMQ d          -8.194  17.433  33.627  0.00  0.00     0.001 A 
ATOM     23  C35 DMQ d          -9.350  17.147  34.390  0.00  0.00     0.000 A 
ATOM     24  C34 DMQ d         -10.412  16.397  33.861  0.00  0.00     0.001 A 
ATOM     25  C33 DMQ d         -10.321  15.916  32.549  0.00  0.00     0.007 A 
ENDBRANCH  19  20
ENDBRANCH   4  19
BRANCH   8  26
ATOM     26  C7  DMQ d         -10.731  14.487  26.440  0.00  0.00     0.166 C 
BRANCH  26  27
ATOM     27  C70 DMQ d         -11.636  13.612  27.279  0.00  0.00    -0.038 A 
ATOM     28  C79 DMQ d         -12.734  12.936  26.692  0.00  0.00     0.009 A 
ATOM     29  C78 DMQ d         -13.630  12.209  27.502  0.00  0.00     0.003 A 
ATOM     30  C77 DMQ d         -13.424  12.171  28.908  0.00  0.00     0.029 A 
ATOM     31  C72 DMQ d         -12.327  12.835  29.493  0.00  0.00     0.026 A 
ATOM     32  C71 DMQ d         -11.429  13.547  28.675  0.00  0.00     0.037 A 
BRANCH  31  33
ATOM     33  N79 DMQ d         -12.148  12.798  30.910  0.00  0.00    -0.399 N 
ATOM     34  H32 DMQ d         -11.641  13.559  31.385  0.00  0.00     0.156 HD
ATOM     35  H33 DMQ d         -12.527  12.012  31.456  0.00  0.00     0.156 HD
ENDBRANCH  31  33
ENDBRANCH  26  27
ENDBRANCH   8  26
BRANCH   5  36
ATOM     36  O4  DMQ d          -9.851  18.381  30.542  0.00  0.00    -0.391 OA
ATOM     37  H5  DMQ d          -9.441  17.780  31.153  0.00  0.00     0.210 HD
ENDBRANCH   5  36
BRANCH   7  38
ATOM     38  C61 DMQ d         -10.603  17.892  26.095  0.00  0.00     0.066 C 
BRANCH  38  39
ATOM     39  C62 DMQ d         -10.021  17.255  24.834  0.00  0.00    -0.056 A 
ATOM     40  C67 DMQ d         -10.851  16.494  23.967  0.00  0.00     0.007 A 
ATOM     41  C66 DMQ d         -10.341  15.982  22.753  0.00  0.00     0.001 A 
ATOM     42  C65 DMQ d          -8.990  16.236  22.418  0.00  0.00     0.000 A 
ATOM     43  C64 DMQ d          -8.156  16.980  23.277  0.00  0.00     0.001 A 
ATOM     44  C63 DMQ d          -8.674  17.483  24.483  0.00  0.00     0.007 A 
ENDBRANCH  38  39
ENDBRANCH   7  38
BRANCH   6  45
ATOM     45  O5  DMQ d         -11.806  18.579  28.566  0.00  0.00    -0.391 OA
ATOM     46  H7  DMQ d         -12.347  18.528  27.787  0.00  0.00     0.210 HD
ENDBRANCH   6  45
TORSDOF 12
ENDMDL
MODEL 6
REMARK VINA RESULT:      -8.3      4.192      7.041
REMARK  12 active torsions:
REMARK  status: ('A' for Active; 'I' for Inactive)
REMARK    1  A    between atoms: N2_3  and  C2_4 
REMARK    2  A    between atoms: C2_4  and  C20_13 
REMARK    3  A    between atoms: C3_5  and  C31_20 
REMARK    4  A    between atoms: C4_6  and  O4_7 
REMARK    5  A    between atoms: C5_8  and  O5_9 
REMARK    6  A    between atoms: C6_10  and  C61_27 
REMARK    7  A    between atoms: N7_11  and  C7_12 
REMARK    8  A    between atoms: C7_12  and  C70_34 
REMARK    9  A    between atoms: C28_17  and  N29_18 
REMARK   10  A    between atoms: C31_20  and  C32_21 
REMARK   11  A    between atoms: C61_27  and  C62_28 
REMARK   12  A    between atoms: C72_36  and  N79_37 
ROOT
ATOM      1  C1  DMQ d         -12.664  12.052  29.835  0.00  0.00     0.322 C 
ATOM      2  O1  DMQ d         -12.394  11.474  28.801  0.00  0.00    -0.247 OA
ATOM      3  N2  DMQ d         -12.914  11.252  30.880  0.00  0.00    -0.322 N 
ATOM      4  C3  DMQ d         -13.710  11.711  32.055  0.00  0.00     0.124 C 
ATOM      5  C4  DMQ d         -13.135  12.786  32.925  0.00  0.00     0.172 C 
ATOM      6  C5  DMQ d         -13.131  14.165  32.313  0.00  0.00     0.172 C 
ATOM      7  C6  DMQ d         -12.313  14.280  31.040  0.00  0.00     0.124 C 
ATOM      8  N7  DMQ d         -12.723  13.423  29.876  0.00  0.00    -0.322 N 
ENDROOT
BRANCH   3   9
ATOM      9  C2  DMQ d         -12.531   9.809  30.749  0.00  0.00     0.166 C 
BRANCH   9  10
ATOM     10  C20 DMQ d         -12.972   8.932  31.879  0.00  0.00    -0.038 A 
ATOM     11  C29 DMQ d         -12.649   9.255  33.202  0.00  0.00     0.037 A 
ATOM     12  C28 DMQ d         -13.027   8.370  34.234  0.00  0.00     0.026 A 
ATOM     13  C23 DMQ d         -13.761   7.192  33.946  0.00  0.00     0.029 A 
ATOM     14  C22 DMQ d         -14.094   6.874  32.627  0.00  0.00     0.003 A 
ATOM     15  C21 DMQ d         -13.684   7.752  31.609  0.00  0.00     0.009 A 
BRANCH  12  16
ATOM     16  N29 DMQ d         -12.542   8.558  35.557  0.00  0.00    -0.399 N 
ATOM     17  H14 DMQ d         -13.183   8.466  36.358  0.00  0.00     0.156 HD
ATOM     18  H15 DMQ d         -11.550   8.786  35.714  0.00  0.00     0.156 HD
ENDBRANCH  12  16
ENDBRANCH   9  10
ENDBRANCH   3   9
BRANCH   4  19
ATOM     19  C31 DMQ d         -15.191  11.871  31.662  0.00  0.00     0.066 C 
BRANCH  19  20
ATOM     20  C32 DMQ d         -15.956  10.656  32.168  0.00  0.00    -0.056 A 
ATOM     21  C37 DMQ d         -16.564   9.776  31.234  0.00  0.00     0.007 A 
ATOM     22  C36 DMQ d         -17.312   8.673  31.693  0.00  0.00     0.001 A 
ATOM     23  C35 DMQ d         -17.432   8.454  33.085  0.00  0.00     0.000 A 
ATOM     24  C34 DMQ d         -16.831   9.315  34.018  0.00  0.00     0.001 A 
ATOM     25  C33 DMQ d         -16.102  10.418  33.558  0.00  0.00     0.007 A 
ENDBRANCH  19  20
ENDBRANCH   4  19
BRANCH   8  26
ATOM     26  C7  DMQ d         -12.991  14.154  28.609  0.00  0.00     0.166 C 
BRANCH  26  27
ATOM     27  C70 DMQ d         -11.839  14.796  27.867  0.00  0.00    -0.038 A 
ATOM     28  C79 DMQ d         -10.712  14.029  27.484  0.00  0.00     0.009 A 
ATOM     29  C78 DMQ d          -9.600  14.659  26.887  0.00  0.00     0.003 A 
ATOM     30  C77 DMQ d          -9.623  16.066  26.685  0.00  0.00     0.029 A 
ATOM     31  C72 DMQ d         -10.748  16.829  27.058  0.00  0.00     0.026 A 
ATOM     32  C71 DMQ d         -11.858  16.191  27.640  0.00  0.00     0.037 A 
BRANCH  31  33
ATOM     33  N79 DMQ d         -10.742  18.244  26.862  0.00  0.00    -0.399 N 
ATOM     34  H32 DMQ d         -11.630  18.767  26.849  0.00  0.00     0.156 HD
ATOM     35  H33 DMQ d          -9.849  18.743  26.735  0.00  0.00     0.156 HD
ENDBRANCH  31  33
ENDBRANCH  26  27
ENDBRANCH   8  26
BRANCH   5  36
ATOM     36  O4  DMQ d         -13.923  12.720  34.072  0.00  0.00    -0.391 OA
ATOM     37  H5  DMQ d         -13.813  13.518  34.576  0.00  0.00     0.210 HD
ENDBRANCH   5  36
BRANCH   7  38
ATOM     38  C61 DMQ d         -10.749  14.219  31.197  0.00  0.00     0.066 C 
BRANCH  38  39
ATOM     39  C62 DMQ d         -10.028  15.511  30.816  0.00  0.00    -0.056 A 
ATOM     40  C67 DMQ d          -8.688  15.471  30.343  0.00  0.00     0.007 A 
ATOM     41  C66 DMQ d          -8.048  16.650  29.901  0.00  0.00     0.001 A 
ATOM     42  C65 DMQ d          -8.762  17.871  29.941  0.00  0.00     0.000 A 
ATOM     43  C64 DMQ d         -10.086  17.923  30.421  0.00  0.00     0.001 A 
ATOM     44  C63 DMQ d         -10.712  16.743  30.859  0.00  0.00     0.007 A 
ENDBRANCH  38  39
ENDBRANCH   7  38
BRANCH   6  45
ATOM     45  O5  DMQ d         -12.544  14.997  33.247  0.00  0.00    -0.391 OA
ATOM     46  H7  DMQ d         -13.063  15.788  33.335  0.00  0.00     0.210 HD
ENDBRANCH   6  45
TORSDOF 12
ENDMDL
MODEL 7
REMARK VINA RESULT:      -8.2      4.678     10.717
REMARK  12 active torsions:
REMARK  status: ('A' for Active; 'I' for Inactive)
REMARK    1  A    between atoms: N2_3  and  C2_4 
REMARK    2  A    between atoms: C2_4  and  C20_13 
REMARK    3  A    between atoms: C3_5  and  C31_20 
REMARK    4  A    between atoms: C4_6  and  O4_7 
REMARK    5  A    between atoms: C5_8  and  O5_9 
REMARK    6  A    between atoms: C6_10  and  C61_27 
REMARK    7  A    between atoms: N7_11  and  C7_12 
REMARK    8  A    between atoms: C7_12  and  C70_34 
REMARK    9  A    between atoms: C28_17  and  N29_18 
REMARK   10  A    between atoms: C31_20  and  C32_21 
REMARK   11  A    between atoms: C61_27  and  C62_28 
REMARK   12  A    between atoms: C72_36  and  N79_37 
ROOT
ATOM      1  C1  DMQ d         -13.289  12.782  31.249  0.00  0.00     0.322 C 
ATOM      2  O1  DMQ d         -13.739  12.275  30.240  0.00  0.00    -0.247 OA
ATOM      3  N2  DMQ d         -12.989  14.083  31.141  0.00  0.00    -0.322 N 
ATOM      4  C3  DMQ d         -12.013  14.749  32.051  0.00  0.00     0.124 C 
ATOM      5  C4  DMQ d         -12.370  14.878  33.501  0.00  0.00     0.172 C 
ATOM      6  C5  DMQ d         -12.316  13.590  34.286  0.00  0.00     0.172 C 
ATOM      7  C6  DMQ d         -13.271  12.519  33.792  0.00  0.00     0.124 C 
ATOM      8  N7  DMQ d         -13.092  12.032  32.382  0.00  0.00    -0.322 N 
ENDROOT
BRANCH   3   9
ATOM      9  C2  DMQ d         -13.523  14.815  29.947  0.00  0.00     0.166 C 
BRANCH   9  10
ATOM     10  C20 DMQ d         -12.519  15.086  28.869  0.00  0.00    -0.038 A 
ATOM     11  C29 DMQ d         -12.176  16.398  28.526  0.00  0.00     0.037 A 
ATOM     12  C28 DMQ d         -11.274  16.614  27.462  0.00  0.00     0.026 A 
ATOM     13  C23 DMQ d         -10.688  15.521  26.776  0.00  0.00     0.029 A 
ATOM     14  C22 DMQ d         -11.021  14.209  27.126  0.00  0.00     0.003 A 
ATOM     15  C21 DMQ d         -11.943  14.014  28.168  0.00  0.00     0.009 A 
BRANCH  12  16
ATOM     16  N29 DMQ d         -11.061  17.923  26.953  0.00  0.00    -0.399 N 
ATOM     17  H14 DMQ d         -10.749  18.053  25.980  0.00  0.00     0.156 HD
ATOM     18  H15 DMQ d         -11.219  18.743  27.557  0.00  0.00     0.156 HD
ENDBRANCH  12  16
ENDBRANCH   9  10
ENDBRANCH   3   9
BRANCH   4  19
ATOM     19  C31 DMQ d         -10.584  14.266  31.741  0.00  0.00     0.066 C 
BRANCH  19  20
ATOM     20  C32 DMQ d          -9.852  15.374  30.999  0.00  0.00    -0.056 A 
ATOM     21  C37 DMQ d          -8.867  15.035  30.033  0.00  0.00     0.007 A 
ATOM     22  C36 DMQ d          -8.153  16.054  29.371  0.00  0.00     0.001 A 
ATOM     23  C35 DMQ d          -8.441  17.405  29.674  0.00  0.00     0.000 A 
ATOM     24  C34 DMQ d          -9.417  17.752  30.622  0.00  0.00     0.001 A 
ATOM     25  C33 DMQ d         -10.113  16.737  31.288  0.00  0.00     0.007 A 
ENDBRANCH  19  20
ENDBRANCH   4  19
BRANCH   8  26
ATOM     26  C7  DMQ d         -12.914  10.564  32.232  0.00  0.00     0.166 C 
BRANCH  26  27
ATOM     27  C70 DMQ d         -14.094   9.647  32.471  0.00  0.00    -0.038 A 
ATOM     28  C79 DMQ d         -15.315   9.848  31.783  0.00  0.00     0.009 A 
ATOM     29  C78 DMQ d         -16.438   9.053  32.092  0.00  0.00     0.003 A 
ATOM     30  C77 DMQ d         -16.331   8.059  33.103  0.00  0.00     0.029 A 
ATOM     31  C72 DMQ d         -15.113   7.852  33.782  0.00  0.00     0.026 A 
ATOM     32  C71 DMQ d         -13.994   8.640  33.459  0.00  0.00     0.037 A 
BRANCH  31  33
ATOM     33  N79 DMQ d         -15.033   6.860  34.808  0.00  0.00    -0.399 N 
ATOM     34  H32 DMQ d         -15.877   6.592  35.333  0.00  0.00     0.156 HD
ATOM     35  H33 DMQ d         -14.130   6.412  35.021  0.00  0.00     0.156 HD
ENDBRANCH  31  33
ENDBRANCH  26  27
ENDBRANCH   8  26
BRANCH   5  36
ATOM     36  O4  DMQ d         -11.456  15.819  33.969  0.00  0.00    -0.391 OA
ATOM     37  H5  DMQ d         -10.847  15.398  34.564  0.00  0.00     0.210 HD
ENDBRANCH   5  36
BRANCH   7  38
ATOM     38  C61 DMQ d         -14.801  12.757  34.064  0.00  0.00     0.066 C 
BRANCH  38  39
ATOM     39  C62 DMQ d         -15.436  11.745  35.017  0.00  0.00    -0.056 A 
ATOM     40  C67 DMQ d         -16.818  11.432  34.914  0.00  0.00     0.007 A 
ATOM     41  C66 DMQ d         -17.389  10.430  35.729  0.00  0.00     0.001 A 
ATOM     42  C65 DMQ d         -16.563   9.747  36.652  0.00  0.00     0.000 A 
ATOM     43  C64 DMQ d         -15.194  10.059  36.771  0.00  0.00     0.001 A 
ATOM     44  C63 DMQ d         -14.637  11.059  35.955  0.00  0.00     0.007 A 
ENDBRANCH  38  39
ENDBRANCH   7  38
BRANCH   6  45
ATOM     45  O5  DMQ d         -12.700  13.911  35.573  0.00  0.00    -0.391 OA
ATOM     46  H7  DMQ d         -11.939  14.195  36.067  0.00  0.00     0.210 HD
ENDBRANCH   6  45
TORSDOF 12
ENDMDL
MODEL 8
REMARK VINA RESULT:      -8.1      4.664      7.690
REMARK  12 active torsions:
REMARK  status: ('A' for Active; 'I' for Inactive)
REMARK    1  A    between atoms: N2_3  and  C2_4 
REMARK    2  A    between atoms: C2_4  and  C20_13 
REMARK    3  A    between atoms: C3_5  and  C31_20 
REMARK    4  A    between atoms: C4_6  and  O4_7 
REMARK    5  A    between atoms: C5_8  and  O5_9 
REMARK    6  A    between atoms: C6_10  and  C61_27 
REMARK    7  A    between atoms: N7_11  and  C7_12 
REMARK    8  A    between atoms: C7_12  and  C70_34 
REMARK    9  A    between atoms: C28_17  and  N29_18 
REMARK   10  A    between atoms: C31_20  and  C32_21 
REMARK   11  A    between atoms: C61_27  and  C62_28 
REMARK   12  A    between atoms: C72_36  and  N79_37 
ROOT
ATOM      1  C1  DMQ d         -13.039  12.743  31.384  0.00  0.00     0.322 C 
ATOM      2  O1  DMQ d         -13.422  12.205  30.365  0.00  0.00    -0.247 OA
ATOM      3  N2  DMQ d         -12.967  11.939  32.453  0.00  0.00    -0.322 N 
ATOM      4  C3  DMQ d         -12.998  12.470  33.847  0.00  0.00     0.124 C 
ATOM      5  C4  DMQ d         -11.847  13.310  34.312  0.00  0.00     0.172 C 
ATOM      6  C5  DMQ d         -11.792  14.697  33.720  0.00  0.00     0.172 C 
ATOM      7  C6  DMQ d         -11.649  14.725  32.209  0.00  0.00     0.124 C 
ATOM      8  N7  DMQ d         -12.741  14.084  31.400  0.00  0.00    -0.322 N 
ENDROOT
BRANCH   3   9
ATOM      9  C2  DMQ d         -13.047  10.462  32.210  0.00  0.00     0.166 C 
BRANCH   9  10
ATOM     10  C20 DMQ d         -14.383   9.847  32.487  0.00  0.00    -0.038 A 
ATOM     11  C29 DMQ d         -14.510   8.794  33.400  0.00  0.00     0.037 A 
ATOM     12  C28 DMQ d         -15.775   8.198  33.586  0.00  0.00     0.026 A 
ATOM     13  C23 DMQ d         -16.913   8.683  32.894  0.00  0.00     0.029 A 
ATOM     14  C22 DMQ d         -16.791   9.742  31.990  0.00  0.00     0.003 A 
ATOM     15  C21 DMQ d         -15.518  10.304  31.796  0.00  0.00     0.009 A 
BRANCH  12  16
ATOM     16  N29 DMQ d         -15.904   7.003  34.344  0.00  0.00    -0.399 N 
ATOM     17  H14 DMQ d         -15.500   6.948  35.290  0.00  0.00     0.156 HD
ATOM     18  H15 DMQ d         -16.401   6.193  33.948  0.00  0.00     0.156 HD
ENDBRANCH  12  16
ENDBRANCH   9  10
ENDBRANCH   3   9
BRANCH   4  19
ATOM     19  C31 DMQ d         -14.405  12.997  34.182  0.00  0.00     0.066 C 
BRANCH  19  20
ATOM     20  C32 DMQ d         -15.104  11.974  35.067  0.00  0.00    -0.056 A 
ATOM     21  C37 DMQ d         -16.519  11.858  35.016  0.00  0.00     0.007 A 
ATOM     22  C36 DMQ d         -17.179  10.944  35.862  0.00  0.00     0.001 A 
ATOM     23  C35 DMQ d         -16.413  10.145  36.742  0.00  0.00     0.000 A 
ATOM     24  C34 DMQ d         -15.014  10.247  36.797  0.00  0.00     0.001 A 
ATOM     25  C33 DMQ d         -14.363  11.166  35.965  0.00  0.00     0.007 A 
ENDBRANCH  19  20
ENDBRANCH   4  19
BRANCH   8  26
ATOM     26  C7  DMQ d         -13.375  14.958  30.379  0.00  0.00     0.166 C 
BRANCH  26  27
ATOM     27  C70 DMQ d         -12.564  15.406  29.182  0.00  0.00    -0.038 A 
ATOM     28  C79 DMQ d         -12.019  14.457  28.283  0.00  0.00     0.009 A 
ATOM     29  C78 DMQ d         -11.179  14.882  27.233  0.00  0.00     0.003 A 
ATOM     30  C77 DMQ d         -10.881  16.265  27.095  0.00  0.00     0.029 A 
ATOM     31  C72 DMQ d         -11.429  17.211  27.984  0.00  0.00     0.026 A 
ATOM     32  C71 DMQ d         -12.278  16.781  29.021  0.00  0.00     0.037 A 
BRANCH  31  33
ATOM     33  N79 DMQ d         -11.102  18.594  27.839  0.00  0.00    -0.399 N 
ATOM     34  H32 DMQ d         -11.117  19.217  28.660  0.00  0.00     0.156 HD
ATOM     35  H33 DMQ d         -10.850  18.969  26.913  0.00  0.00     0.156 HD
ENDBRANCH  31  33
ENDBRANCH  26  27
ENDBRANCH   8  26
BRANCH   5  36
ATOM     36  O4  DMQ d         -12.011  13.333  35.695  0.00  0.00    -0.391 OA
ATOM     37  H5  DMQ d         -11.953  12.447  36.034  0.00  0.00     0.210 HD
ENDBRANCH   5  36
BRANCH   7  38
ATOM     38  C61 DMQ d         -10.254  14.295  31.624  0.00  0.00     0.066 C 
BRANCH  38  39
ATOM     39  C62 DMQ d          -9.475  15.427  30.957  0.00  0.00    -0.056 A 
ATOM     40  C67 DMQ d          -8.640  15.160  29.838  0.00  0.00     0.007 A 
ATOM     41  C66 DMQ d          -7.992  16.216  29.160  0.00  0.00     0.001 A 
ATOM     42  C65 DMQ d          -8.184  17.541  29.615  0.00  0.00     0.000 A 
ATOM     43  C64 DMQ d          -9.001  17.814  30.731  0.00  0.00     0.001 A 
ATOM     44  C63 DMQ d          -9.640  16.755  31.399  0.00  0.00     0.007 A 
ENDBRANCH  38  39
ENDBRANCH   7  38
BRANCH   6  45
ATOM     45  O5  DMQ d         -10.662  15.292  34.244  0.00  0.00    -0.391 OA
ATOM     46  H7  DMQ d         -10.890  16.143  34.601  0.00  0.00     0.210 HD
ENDBRANCH   6  45
TORSDOF 12
ENDMDL
MODEL 9
REMARK VINA RESULT:      -8.1      3.593      6.046
REMARK  12 active torsions:
REMARK  status: ('A' for Active; 'I' for Inactive)
REMARK    1  A    between atoms: N2_3  and  C2_4 
REMARK    2  A    between atoms: C2_4  and  C20_13 
REMARK    3  A    between atoms: C3_5  and  C31_20 
REMARK    4  A    between atoms: C4_6  and  O4_7 
REMARK    5  A    between atoms: C5_8  and  O5_9 
REMARK    6  A    between atoms: C6_10  and  C61_27 
REMARK    7  A    between atoms: N7_11  and  C7_12 
REMARK    8  A    between atoms: C7_12  and  C70_34 
REMARK    9  A    between atoms: C28_17  and  N29_18 
REMARK   10  A    between atoms: C31_20  and  C32_21 
REMARK   11  A    between atoms: C61_27  and  C62_28 
REMARK   12  A    between atoms: C72_36  and  N79_37 
ROOT
ATOM      1  C1  DMQ d         -11.285  14.542  31.759  0.00  0.00     0.322 C 
ATOM      2  O1  DMQ d         -10.606  15.034  32.639  0.00  0.00    -0.247 OA
ATOM      3  N2  DMQ d         -12.502  14.139  32.146  0.00  0.00    -0.322 N 
ATOM      4  C3  DMQ d         -13.273  13.110  31.388  0.00  0.00     0.124 C 
ATOM      5  C4  DMQ d         -13.746  13.453  30.008  0.00  0.00     0.172 C 
ATOM      6  C5  DMQ d         -12.662  13.501  28.959  0.00  0.00     0.172 C 
ATOM      7  C6  DMQ d         -11.587  14.540  29.220  0.00  0.00     0.124 C 
ATOM      8  N7  DMQ d         -10.789  14.404  30.486  0.00  0.00    -0.322 N 
ENDROOT
BRANCH   3   9
ATOM      9  C2  DMQ d         -12.994  14.615  33.479  0.00  0.00     0.166 C 
BRANCH   9  10
ATOM     10  C20 DMQ d         -13.030  13.570  34.550  0.00  0.00    -0.038 A 
ATOM     11  C29 DMQ d         -14.249  13.111  35.060  0.00  0.00     0.037 A 
ATOM     12  C28 DMQ d         -14.241  12.172  36.114  0.00  0.00     0.026 A 
ATOM     13  C23 DMQ d         -13.019  11.665  36.623  0.00  0.00     0.029 A 
ATOM     14  C22 DMQ d         -11.800  12.114  36.107  0.00  0.00     0.003 A 
ATOM     15  C21 DMQ d         -11.827  13.070  35.078  0.00  0.00     0.009 A 
BRANCH  12  16
ATOM     16  N29 DMQ d         -15.445  11.840  36.792  0.00  0.00    -0.399 N 
ATOM     17  H14 DMQ d         -15.409  11.320  37.681  0.00  0.00     0.156 HD
ATOM     18  H15 DMQ d         -16.353  12.119  36.395  0.00  0.00     0.156 HD
ENDBRANCH  12  16
ENDBRANCH   9  10
ENDBRANCH   3   9
BRANCH   4  19
ATOM     19  C31 DMQ d         -12.622  11.726  31.563  0.00  0.00     0.066 C 
BRANCH  19  20
ATOM     20  C32 DMQ d         -13.526  10.878  32.447  0.00  0.00    -0.056 A 
ATOM     21  C37 DMQ d         -12.948   9.897  33.296  0.00  0.00     0.007 A 
ATOM     22  C36 DMQ d         -13.779   9.077  34.087  0.00  0.00     0.001 A 
ATOM     23  C35 DMQ d         -15.180   9.256  34.028  0.00  0.00     0.000 A 
ATOM     24  C34 DMQ d         -15.762  10.227  33.196  0.00  0.00     0.001 A 
ATOM     25  C33 DMQ d         -14.934  11.029  32.401  0.00  0.00     0.007 A 
ENDBRANCH  19  20
ENDBRANCH   4  19
BRANCH   8  26
ATOM     26  C7  DMQ d          -9.315  14.344  30.308  0.00  0.00     0.166 C 
BRANCH  26  27
ATOM     27  C70 DMQ d          -8.590  15.542  29.733  0.00  0.00    -0.038 A 
ATOM     28  C79 DMQ d          -8.626  16.793  30.396  0.00  0.00     0.009 A 
ATOM     29  C78 DMQ d          -8.035  17.926  29.798  0.00  0.00     0.003 A 
ATOM     30  C77 DMQ d          -7.416  17.798  28.526  0.00  0.00     0.029 A 
ATOM     31  C72 DMQ d          -7.372  16.552  27.869  0.00  0.00     0.026 A 
ATOM     32  C71 DMQ d          -7.951  15.424  28.479  0.00  0.00     0.037 A 
BRANCH  31  33
ATOM     33  N79 DMQ d          -6.759  16.449  26.582  0.00  0.00    -0.399 N 
ATOM     34  H32 DMQ d          -5.751  16.631  26.474  0.00  0.00     0.156 HD
ATOM     35  H33 DMQ d          -7.327  16.193  25.761  0.00  0.00     0.156 HD
ENDBRANCH  31  33
ENDBRANCH  26  27
ENDBRANCH   8  26
BRANCH   5  36
ATOM     36  O4  DMQ d         -14.692  12.465  29.744  0.00  0.00    -0.391 OA
ATOM     37  H5  DMQ d         -14.250  11.635  29.603  0.00  0.00     0.210 HD
ENDBRANCH   5  36
BRANCH   7  38
ATOM     38  C61 DMQ d         -11.999  16.045  29.030  0.00  0.00     0.066 C 
BRANCH  38  39
ATOM     39  C62 DMQ d         -11.337  16.733  27.838  0.00  0.00    -0.056 A 
ATOM     40  C67 DMQ d         -10.966  18.103  27.915  0.00  0.00     0.007 A 
ATOM     41  C66 DMQ d         -10.271  18.719  26.851  0.00  0.00     0.001 A 
ATOM     42  C65 DMQ d          -9.953  17.950  25.707  0.00  0.00     0.000 A 
ATOM     43  C64 DMQ d         -10.327  16.594  25.615  0.00  0.00     0.001 A 
ATOM     44  C63 DMQ d         -11.021  15.993  26.680  0.00  0.00     0.007 A 
ENDBRANCH  38  39
ENDBRANCH   7  38
BRANCH   6  45
ATOM     45  O5  DMQ d         -13.287  13.854  27.779  0.00  0.00    -0.391 OA
ATOM     46  H7  DMQ d         -13.596  13.071  27.339  0.00  0.00     0.210 HD
ENDBRANCH   6  45
TORSDOF 12
ENDMDL
MODEL 10
REMARK VINA RESULT:      -8.1      3.195      9.324
REMARK  12 active torsions:
REMARK  status: ('A' for Active; 'I' for Inactive)
REMARK    1  A    between atoms: N2_3  and  C2_4 
REMARK    2  A    between atoms: C2_4  and  C20_13 
REMARK    3  A    between atoms: C3_5  and  C31_20 
REMARK    4  A    between atoms: C4_6  and  O4_7 
REMARK    5  A    between atoms: C5_8  and  O5_9 
REMARK    6  A    between atoms: C6_10  and  C61_27 
REMARK    7  A    between atoms: N7_11  and  C7_12 
REMARK    8  A    between atoms: C7_12  and  C70_34 
REMARK    9  A    between atoms: C28_17  and  N29_18 
REMARK   10  A    between atoms: C31_20  and  C32_21 
REMARK   11  A    between atoms: C61_27  and  C62_28 
REMARK   12  A    between atoms: C72_36  and  N79_37 
ROOT
ATOM      1  C1  DMQ d         -10.820  14.443  30.813  0.00  0.00     0.322 C 
ATOM      2  O1  DMQ d         -10.071  14.827  31.689  0.00  0.00    -0.247 OA
ATOM      3  N2  DMQ d         -10.266  14.351  29.597  0.00  0.00    -0.322 N 
ATOM      4  C3  DMQ d         -11.084  14.377  28.350  0.00  0.00     0.124 C 
ATOM      5  C4  DMQ d         -12.017  13.233  28.090  0.00  0.00     0.172 C 
ATOM      6  C5  DMQ d         -13.245  13.203  28.967  0.00  0.00     0.172 C 
ATOM      7  C6  DMQ d         -12.949  13.073  30.450  0.00  0.00     0.124 C 
ATOM      8  N7  DMQ d         -12.136  14.163  31.089  0.00  0.00    -0.322 N 
ENDROOT
BRANCH   3   9
ATOM      9  C2  DMQ d          -8.771  14.413  29.516  0.00  0.00     0.166 C 
BRANCH   9  10
ATOM     10  C20 DMQ d          -8.218  15.703  28.996  0.00  0.00    -0.038 A 
ATOM     11  C29 DMQ d          -7.420  15.727  27.847  0.00  0.00     0.037 A 
ATOM     12  C28 DMQ d          -6.865  16.954  27.425  0.00  0.00     0.026 A 
ATOM     13  C23 DMQ d          -7.144  18.154  28.123  0.00  0.00     0.029 A 
ATOM     14  C22 DMQ d          -7.951  18.134  29.264  0.00  0.00     0.003 A 
ATOM     15  C21 DMQ d          -8.471  16.899  29.688  0.00  0.00     0.009 A 
BRANCH  12  16
ATOM     16  N29 DMQ d          -5.890  16.985  26.391  0.00  0.00    -0.399 N 
ATOM     17  H14 DMQ d          -6.114  17.422  25.485  0.00  0.00     0.156 HD
ATOM     18  H15 DMQ d          -4.960  16.571  26.547  0.00  0.00     0.156 HD
ENDBRANCH  12  16
ENDBRANCH   9  10
ENDBRANCH   3   9
BRANCH   4  19
ATOM     19  C31 DMQ d         -11.655  15.789  28.121  0.00  0.00     0.066 C 
BRANCH  19  20
ATOM     20  C32 DMQ d         -10.885  16.439  26.980  0.00  0.00    -0.056 A 
ATOM     21  C37 DMQ d         -10.366  15.626  25.937  0.00  0.00     0.007 A 
ATOM     22  C36 DMQ d          -9.615  16.213  24.898  0.00  0.00     0.001 A 
ATOM     23  C35 DMQ d          -9.402  17.611  24.907  0.00  0.00     0.000 A 
ATOM     24  C34 DMQ d          -9.915  18.424  25.930  0.00  0.00     0.001 A 
ATOM     25  C33 DMQ d         -10.648  17.836  26.968  0.00  0.00     0.007 A 
ENDBRANCH  19  20
ENDBRANCH   4  19
BRANCH   8  26
ATOM     26  C7  DMQ d         -12.763  14.817  32.268  0.00  0.00     0.166 C 
BRANCH  26  27
ATOM     27  C70 DMQ d         -12.787  14.088  33.594  0.00  0.00    -0.038 A 
ATOM     28  C79 DMQ d         -11.581  13.784  34.272  0.00  0.00     0.009 A 
ATOM     29  C78 DMQ d         -11.612  13.013  35.452  0.00  0.00     0.003 A 
ATOM     30  C77 DMQ d         -12.859  12.540  35.944  0.00  0.00     0.029 A 
ATOM     31  C72 DMQ d         -14.060  12.850  35.275  0.00  0.00     0.026 A 
ATOM     32  C71 DMQ d         -14.022  13.631  34.105  0.00  0.00     0.037 A 
BRANCH  31  33
ATOM     33  N79 DMQ d         -15.301  12.349  35.776  0.00  0.00    -0.399 N 
ATOM     34  H32 DMQ d         -15.324  11.468  36.309  0.00  0.00     0.156 HD
ATOM     35  H33 DMQ d         -16.173  12.870  35.605  0.00  0.00     0.156 HD
ENDBRANCH  31  33
ENDBRANCH  26  27
ENDBRANCH   8  26
BRANCH   5  36
ATOM     36  O4  DMQ d         -12.335  13.386  26.743  0.00  0.00    -0.391 OA
ATOM     37  H5  DMQ d         -11.727  13.995  26.342  0.00  0.00     0.210 HD
ENDBRANCH   5  36
BRANCH   7  38
ATOM     38  C61 DMQ d         -12.418  11.677  30.944  0.00  0.00     0.066 C 
BRANCH  38  39
ATOM     39  C62 DMQ d         -13.405  10.902  31.816  0.00  0.00    -0.056 A 
ATOM     40  C67 DMQ d         -12.936  10.107  32.897  0.00  0.00     0.007 A 
ATOM     41  C66 DMQ d         -13.848   9.463  33.762  0.00  0.00     0.001 A 
ATOM     42  C65 DMQ d         -15.234   9.621  33.533  0.00  0.00     0.000 A 
ATOM     43  C64 DMQ d         -15.710  10.397  32.457  0.00  0.00     0.001 A 
ATOM     44  C63 DMQ d         -14.792  11.031  31.601  0.00  0.00     0.007 A 
ENDBRANCH  38  39
ENDBRANCH   7  38
BRANCH   6  45
ATOM     45  O5  DMQ d         -13.952  12.076  28.596  0.00  0.00    -0.391 OA
ATOM     46  H7  DMQ d         -14.073  11.516  29.354  0.00  0.00     0.210 HD
ENDBRANCH   6  45
TORSDOF 12
ENDMDL
MODEL 11
REMARK VINA RESULT:      -7.9      3.940      6.566
REMARK  12 active torsions:
REMARK  status: ('A' for Active; 'I' for Inactive)
REMARK    1  A    between atoms: N2_3  and  C2_4 
REMARK    2  A    between atoms: C2_4  and  C20_13 
REMARK    3  A    between atoms: C3_5  and  C31_20 
REMARK    4  A    between atoms: C4_6  and  O4_7 
REMARK    5  A    between atoms: C5_8  and  O5_9 
REMARK    6  A    between atoms: C6_10  and  C61_27 
REMARK    7  A    between atoms: N7_11  and  C7_12 
REMARK    8  A    between atoms: C7_12  and  C70_34 
REMARK    9  A    between atoms: C28_17  and  N29_18 
REMARK   10  A    between atoms: C31_20  and  C32_21 
REMARK   11  A    between atoms: C61_27  and  C62_28 
REMARK   12  A    between atoms: C72_36  and  N79_37 
ROOT
ATOM      1  C1  DMQ d          -4.115  17.514  25.942  0.00  0.00     0.322 C 
ATOM      2  O1  DMQ d          -3.726  17.122  27.024  0.00  0.00    -0.247 OA
ATOM      3  N2  DMQ d          -5.309  18.120  25.958  0.00  0.00    -0.322 N 
ATOM      4  C3  DMQ d          -6.158  18.229  24.737  0.00  0.00     0.124 C 
ATOM      5  C4  DMQ d          -5.664  19.075  23.604  0.00  0.00     0.172 C 
ATOM      6  C5  DMQ d          -4.513  18.487  22.825  0.00  0.00     0.172 C 
ATOM      7  C6  DMQ d          -3.260  18.251  23.647  0.00  0.00     0.124 C 
ATOM      8  N7  DMQ d          -3.366  17.305  24.810  0.00  0.00    -0.322 N 
ENDROOT
BRANCH   3   9
ATOM      9  C2  DMQ d          -5.859  18.521  27.294  0.00  0.00     0.166 C 
BRANCH   9  10
ATOM     10  C20 DMQ d          -6.965  17.654  27.809  0.00  0.00    -0.038 A 
ATOM     11  C29 DMQ d          -8.125  18.220  28.349  0.00  0.00     0.037 A 
ATOM     12  C28 DMQ d          -9.117  17.370  28.883  0.00  0.00     0.026 A 
ATOM     13  C23 DMQ d          -8.967  15.962  28.837  0.00  0.00     0.029 A 
ATOM     14  C22 DMQ d          -7.814  15.394  28.287  0.00  0.00     0.003 A 
ATOM     15  C21 DMQ d          -6.824  16.256  27.787  0.00  0.00     0.009 A 
BRANCH  12  16
ATOM     16  N29 DMQ d         -10.207  17.909  29.620  0.00  0.00    -0.399 N 
ATOM     17  H14 DMQ d         -11.154  17.908  29.214  0.00  0.00     0.156 HD
ATOM     18  H15 DMQ d         -10.050  18.301  30.559  0.00  0.00     0.156 HD
ENDBRANCH  12  16
ENDBRANCH   9  10
ENDBRANCH   3   9
BRANCH   4  19
ATOM     19  C31 DMQ d          -6.724  16.847  24.360  0.00  0.00     0.066 C 
BRANCH  19  20
ATOM     20  C32 DMQ d          -8.187  16.797  24.776  0.00  0.00    -0.056 A 
ATOM     21  C37 DMQ d          -8.868  18.006  25.082  0.00  0.00     0.007 A 
ATOM     22  C36 DMQ d         -10.210  17.966  25.510  0.00  0.00     0.001 A 
ATOM     23  C35 DMQ d         -10.863  16.716  25.615  0.00  0.00     0.000 A 
ATOM     24  C34 DMQ d         -10.202  15.515  25.310  0.00  0.00     0.001 A 
ATOM     25  C33 DMQ d          -8.864  15.558  24.899  0.00  0.00     0.007 A 
ENDBRANCH  19  20
ENDBRANCH   4  19
BRANCH   8  26
ATOM     26  C7  DMQ d          -2.397  16.178  24.806  0.00  0.00     0.166 C 
BRANCH  26  27
ATOM     27  C70 DMQ d          -1.388  16.073  23.682  0.00  0.00    -0.038 A 
ATOM     28  C79 DMQ d          -1.816  15.955  22.337  0.00  0.00     0.009 A 
ATOM     29  C78 DMQ d          -0.870  15.753  21.312  0.00  0.00     0.003 A 
ATOM     30  C77 DMQ d           0.509  15.660  21.644  0.00  0.00     0.029 A 
ATOM     31  C72 DMQ d           0.937  15.786  22.981  0.00  0.00     0.026 A 
ATOM     32  C71 DMQ d          -0.012  16.002  23.997  0.00  0.00     0.037 A 
BRANCH  31  33
ATOM     33  N79 DMQ d           2.326  15.672  23.296  0.00  0.00    -0.399 N 
ATOM     34  H32 DMQ d           3.035  15.994  22.621  0.00  0.00     0.156 HD
ATOM     35  H33 DMQ d           2.618  15.269  24.197  0.00  0.00     0.156 HD
ENDBRANCH  31  33
ENDBRANCH  26  27
ENDBRANCH   8  26
BRANCH   5  36
ATOM     36  O4  DMQ d          -6.801  19.245  22.817  0.00  0.00    -0.391 OA
ATOM     37  H5  DMQ d          -6.776  20.101  22.406  0.00  0.00     0.210 HD
ENDBRANCH   5  36
BRANCH   7  38
ATOM     38  C61 DMQ d          -2.457  19.527  24.094  0.00  0.00     0.066 C 
BRANCH  38  39
ATOM     39  C62 DMQ d          -0.998  19.542  23.642  0.00  0.00    -0.056 A 
ATOM     40  C67 DMQ d           0.049  19.594  24.601  0.00  0.00     0.007 A 
ATOM     41  C66 DMQ d           1.399  19.515  24.193  0.00  0.00     0.001 A 
ATOM     42  C65 DMQ d           1.691  19.387  22.815  0.00  0.00     0.000 A 
ATOM     43  C64 DMQ d           0.659  19.347  21.855  0.00  0.00     0.001 A 
ATOM     44  C63 DMQ d          -0.680  19.429  22.273  0.00  0.00     0.007 A 
ENDBRANCH  38  39
ENDBRANCH   7  38
BRANCH   6  45
ATOM     45  O5  DMQ d          -4.192  19.417  21.856  0.00  0.00    -0.391 OA
ATOM     46  H7  DMQ d          -4.803  19.343  21.133  0.00  0.00     0.210 HD
ENDBRANCH   6  45
TORSDOF 12
ENDMDL
MODEL 12
REMARK VINA RESULT:      -7.9      5.019      7.713
REMARK  12 active torsions:
REMARK  status: ('A' for Active; 'I' for Inactive)
REMARK    1  A    between atoms: N2_3  and  C2_4 
REMARK    2  A    between atoms: C2_4  and  C20_13 
REMARK    3  A    between atoms: C3_5  and  C31_20 
REMARK    4  A    between atoms: C4_6  and  O4_7 
REMARK    5  A    between atoms: C5_8  and  O5_9 
REMARK    6  A    between atoms: C6_10  and  C61_27 
REMARK    7  A    between atoms: N7_11  and  C7_12 
REMARK    8  A    between atoms: C7_12  and  C70_34 
REMARK    9  A    between atoms: C28_17  and  N29_18 
REMARK   10  A    between atoms: C31_20  and  C32_21 
REMARK   11  A    between atoms: C61_27  and  C62_28 
REMARK   12  A    between atoms: C72_36  and  N79_37 
ROOT
ATOM      1  C1  DMQ d         -13.149  12.402  31.854  0.00  0.00     0.322 C 
ATOM      2  O1  DMQ d         -13.278  11.612  30.939  0.00  0.00    -0.247 OA
ATOM      3  N2  DMQ d         -13.155  11.854  33.076  0.00  0.00    -0.322 N 
ATOM      4  C3  DMQ d         -13.494  12.644  34.296  0.00  0.00     0.124 C 
ATOM      5  C4  DMQ d         -12.561  13.739  34.713  0.00  0.00     0.172 C 
ATOM      6  C5  DMQ d         -12.591  14.967  33.836  0.00  0.00     0.172 C 
ATOM      7  C6  DMQ d         -12.197  14.713  32.393  0.00  0.00     0.124 C 
ATOM      8  N7  DMQ d         -13.039  13.748  31.608  0.00  0.00    -0.322 N 
ENDROOT
BRANCH   3   9
ATOM      9  C2  DMQ d         -12.996  10.366  33.165  0.00  0.00     0.166 C 
BRANCH   9  10
ATOM     10  C20 DMQ d         -13.114   9.798  34.544  0.00  0.00    -0.038 A 
ATOM     11  C29 DMQ d         -12.348  10.310  35.597  0.00  0.00     0.037 A 
ATOM     12  C28 DMQ d         -12.440   9.706  36.868  0.00  0.00     0.026 A 
ATOM     13  C23 DMQ d         -13.327   8.624  37.094  0.00  0.00     0.029 A 
ATOM     14  C22 DMQ d         -14.102   8.118  36.047  0.00  0.00     0.003 A 
ATOM     15  C21 DMQ d         -13.976   8.713  34.780  0.00  0.00     0.009 A 
BRANCH  12  16
ATOM     16  N29 DMQ d         -11.533  10.063  37.903  0.00  0.00    -0.399 N 
ATOM     17  H14 DMQ d         -11.878  10.209  38.862  0.00  0.00     0.156 HD
ATOM     18  H15 DMQ d         -10.531  10.174  37.693  0.00  0.00     0.156 HD
ENDBRANCH  12  16
ENDBRANCH   9  10
ENDBRANCH   3   9
BRANCH   4  19
ATOM     19  C31 DMQ d         -14.996  12.985  34.305  0.00  0.00     0.066 C 
BRANCH  19  20
ATOM     20  C32 DMQ d         -15.714  11.972  35.185  0.00  0.00    -0.056 A 
ATOM     21  C37 DMQ d         -16.655  11.083  34.599  0.00  0.00     0.007 A 
ATOM     22  C36 DMQ d         -17.357  10.170  35.412  0.00  0.00     0.001 A 
ATOM     23  C35 DMQ d         -17.100  10.146  36.802  0.00  0.00     0.000 A 
ATOM     24  C34 DMQ d         -16.168  11.016  37.391  0.00  0.00     0.001 A 
ATOM     25  C33 DMQ d         -15.484  11.932  36.583  0.00  0.00     0.007 A 
ENDBRANCH  19  20
ENDBRANCH   4  19
BRANCH   8  26
ATOM     26  C7  DMQ d         -13.600  14.279  30.337  0.00  0.00     0.166 C 
BRANCH  26  27
ATOM     27  C70 DMQ d         -12.665  14.590  29.188  0.00  0.00    -0.038 A 
ATOM     28  C79 DMQ d         -11.863  13.574  28.615  0.00  0.00     0.009 A 
ATOM     29  C78 DMQ d         -10.920  13.898  27.617  0.00  0.00     0.003 A 
ATOM     30  C77 DMQ d         -10.780  15.250  27.204  0.00  0.00     0.029 A 
ATOM     31  C72 DMQ d         -11.583  16.262  27.768  0.00  0.00     0.026 A 
ATOM     32  C71 DMQ d         -12.531  15.928  28.753  0.00  0.00     0.037 A 
BRANCH  31  33
ATOM     33  N79 DMQ d         -11.413  17.618  27.351  0.00  0.00    -0.399 N 
ATOM     34  H32 DMQ d         -12.161  18.307  27.520  0.00  0.00     0.156 HD
ATOM     35  H33 DMQ d         -10.543  17.907  26.882  0.00  0.00     0.156 HD
ENDBRANCH  31  33
ENDBRANCH  26  27
ENDBRANCH   8  26
BRANCH   5  36
ATOM     36  O4  DMQ d         -12.961  14.015  36.019  0.00  0.00    -0.391 OA
ATOM     37  H5  DMQ d         -13.435  13.269  36.367  0.00  0.00     0.210 HD
ENDBRANCH   5  36
BRANCH   7  38
ATOM     38  C61 DMQ d         -10.678  14.411  32.119  0.00  0.00     0.066 C 
BRANCH  38  39
ATOM     39  C62 DMQ d          -9.982  15.441  31.231  0.00  0.00    -0.056 A 
ATOM     40  C67 DMQ d         -10.360  16.810  31.289  0.00  0.00     0.007 A 
ATOM     41  C66 DMQ d          -9.658  17.780  30.539  0.00  0.00     0.001 A 
ATOM     42  C65 DMQ d          -8.576  17.365  29.728  0.00  0.00     0.000 A 
ATOM     43  C64 DMQ d          -8.202  16.009  29.654  0.00  0.00     0.001 A 
ATOM     44  C63 DMQ d          -8.909  15.052  30.403  0.00  0.00     0.007 A 
ENDBRANCH  38  39
ENDBRANCH   7  38
BRANCH   6  45
ATOM     45  O5  DMQ d         -11.656  15.836  34.363  0.00  0.00    -0.391 OA
ATOM     46  H7  DMQ d         -11.086  16.146  33.668  0.00  0.00     0.210 HD
ENDBRANCH   6  45
TORSDOF 12
ENDMDL
MODEL 13
REMARK VINA RESULT:      -6.7      3.739      7.036
REMARK  12 active torsions:
REMARK  status: ('A' for Active; 'I' for Inactive)
REMARK    1  A    between atoms: N2_3  and  C2_4 
REMARK    2  A    between atoms: C2_4  and  C20_13 
REMARK    3  A    between atoms: C3_5  and  C31_20 
REMARK    4  A    between atoms: C4_6  and  O4_7 
REMARK    5  A    between atoms: C5_8  and  O5_9 
REMARK    6  A    between atoms: C6_10  and  C61_27 
REMARK    7  A    between atoms: N7_11  and  C7_12 
REMARK    8  A    between atoms: C7_12  and  C70_34 
REMARK    9  A    between atoms: C28_17  and  N29_18 
REMARK   10  A    between atoms: C31_20  and  C32_21 
REMARK   11  A    between atoms: C61_27  and  C62_28 
REMARK   12  A    between atoms: C72_36  and  N79_37 
ROOT
ATOM      1  C1  DMQ d          -4.323  17.663  25.548  0.00  0.00     0.322 C 
ATOM      2  O1  DMQ d          -4.063  17.392  26.703  0.00  0.00    -0.247 OA
ATOM      3  N2  DMQ d          -5.542  18.183  25.351  0.00  0.00    -0.322 N 
ATOM      4  C3  DMQ d          -6.221  18.129  24.024  0.00  0.00     0.124 C 
ATOM      5  C4  DMQ d          -5.627  18.909  22.891  0.00  0.00     0.172 C 
ATOM      6  C5  DMQ d          -4.349  18.337  22.328  0.00  0.00     0.172 C 
ATOM      7  C6  DMQ d          -3.208  18.259  23.325  0.00  0.00     0.124 C 
ATOM      8  N7  DMQ d          -3.417  17.411  24.548  0.00  0.00    -0.322 N 
ENDROOT
BRANCH   3   9
ATOM      9  C2  DMQ d          -6.291  18.657  26.560  0.00  0.00     0.166 C 
BRANCH   9  10
ATOM     10  C20 DMQ d          -7.488  17.837  26.925  0.00  0.00    -0.038 A 
ATOM     11  C29 DMQ d          -7.346  16.507  27.336  0.00  0.00     0.037 A 
ATOM     12  C28 DMQ d          -8.503  15.747  27.609  0.00  0.00     0.026 A 
ATOM     13  C23 DMQ d          -9.791  16.328  27.513  0.00  0.00     0.029 A 
ATOM     14  C22 DMQ d          -9.935  17.660  27.113  0.00  0.00     0.003 A 
ATOM     15  C21 DMQ d          -8.774  18.393  26.817  0.00  0.00     0.009 A 
BRANCH  12  16
ATOM     16  N29 DMQ d          -8.408  14.346  27.829  0.00  0.00    -0.399 N 
ATOM     17  H14 DMQ d          -7.903  13.752  27.156  0.00  0.00     0.156 HD
ATOM     18  H15 DMQ d          -8.845  13.924  28.660  0.00  0.00     0.156 HD
ENDBRANCH  12  16
ENDBRANCH   9  10
ENDBRANCH   3   9
BRANCH   4  19
ATOM     19  C31 DMQ d          -6.650  16.684  23.708  0.00  0.00     0.066 C 
BRANCH  19  20
ATOM     20  C32 DMQ d          -8.077  16.711  23.179  0.00  0.00    -0.056 A 
ATOM     21  C37 DMQ d          -9.144  16.317  24.030  0.00  0.00     0.007 A 
ATOM     22  C36 DMQ d         -10.465  16.298  23.537  0.00  0.00     0.001 A 
ATOM     23  C35 DMQ d         -10.706  16.686  22.199  0.00  0.00     0.000 A 
ATOM     24  C34 DMQ d          -9.660  17.083  21.350  0.00  0.00     0.001 A 
ATOM     25  C33 DMQ d          -8.348  17.087  21.839  0.00  0.00     0.007 A 
ENDBRANCH  19  20
ENDBRANCH   4  19
BRANCH   8  26
ATOM     26  C7  DMQ d          -2.393  16.357  24.775  0.00  0.00     0.166 C 
BRANCH  26  27
ATOM     27  C70 DMQ d          -1.335  16.113  23.720  0.00  0.00    -0.038 A 
ATOM     28  C79 DMQ d           0.041  16.205  24.043  0.00  0.00     0.009 A 
ATOM     29  C78 DMQ d           1.013  16.079  23.030  0.00  0.00     0.003 A 
ATOM     30  C77 DMQ d           0.597  15.870  21.687  0.00  0.00     0.029 A 
ATOM     31  C72 DMQ d          -0.772  15.770  21.366  0.00  0.00     0.026 A 
ATOM     32  C71 DMQ d          -1.736  15.883  22.385  0.00  0.00     0.037 A 
BRANCH  31  33
ATOM     33  N79 DMQ d          -1.169  15.578  20.007  0.00  0.00    -0.399 N 
ATOM     34  H32 DMQ d          -0.489  15.719  19.246  0.00  0.00     0.156 HD
ATOM     35  H33 DMQ d          -2.136  15.297  19.788  0.00  0.00     0.156 HD
ENDBRANCH  31  33
ENDBRANCH  26  27
ENDBRANCH   8  26
BRANCH   5  36
ATOM     36  O4  DMQ d          -6.654  18.931  21.950  0.00  0.00    -0.391 OA
ATOM     37  H5  DMQ d          -7.038  19.800  21.923  0.00  0.00     0.210 HD
ENDBRANCH   5  36
BRANCH   7  38
ATOM     38  C61 DMQ d          -2.548  19.622  23.751  0.00  0.00     0.066 C 
BRANCH  38  39
ATOM     39  C62 DMQ d          -1.022  19.633  23.675  0.00  0.00    -0.056 A 
ATOM     40  C67 DMQ d          -0.367  19.552  22.417  0.00  0.00     0.007 A 
ATOM     41  C66 DMQ d           1.040  19.655  22.333  0.00  0.00     0.001 A 
ATOM     42  C65 DMQ d           1.783  19.837  23.522  0.00  0.00     0.000 A 
ATOM     43  C64 DMQ d           1.143  19.906  24.776  0.00  0.00     0.001 A 
ATOM     44  C63 DMQ d          -0.256  19.800  24.847  0.00  0.00     0.007 A 
ENDBRANCH  38  39
ENDBRANCH   7  38
BRANCH   6  45
ATOM     45  O5  DMQ d          -3.952  19.202  21.327  0.00  0.00    -0.391 OA
ATOM     46  H7  DMQ d          -4.230  20.085  21.544  0.00  0.00     0.210 HD
ENDBRANCH   6  45
TORSDOF 12
ENDMDL
MODEL 14
REMARK VINA RESULT:      -6.5      6.026     10.773
REMARK  12 active torsions:
REMARK  status: ('A' for Active; 'I' for Inactive)
REMARK    1  A    between atoms: N2_3  and  C2_4 
REMARK    2  A    between atoms: C2_4  and  C20_13 
REMARK    3  A    between atoms: C3_5  and  C31_20 
REMARK    4  A    between atoms: C4_6  and  O4_7 
REMARK    5  A    between atoms: C5_8  and  O5_9 
REMARK    6  A    between atoms: C6_10  and  C61_27 
REMARK    7  A    between atoms: N7_11  and  C7_12 
REMARK    8  A    between atoms: C7_12  and  C70_34 
REMARK    9  A    between atoms: C28_17  and  N29_18 
REMARK   10  A    between atoms: C31_20  and  C32_21 
REMARK   11  A    between atoms: C61_27  and  C62_28 
REMARK   12  A    between atoms: C72_36  and  N79_37 
ROOT
ATOM      1  C1  DMQ d         -15.382  11.033  33.525  0.00  0.00     0.322 C 
ATOM      2  O1  DMQ d         -16.333  11.571  34.056  0.00  0.00    -0.247 OA
ATOM      3  N2  DMQ d         -15.489   9.704  33.390  0.00  0.00    -0.322 N 
ATOM      4  C3  DMQ d         -14.293   8.827  33.228  0.00  0.00     0.124 C 
ATOM      5  C4  DMQ d         -13.481   8.960  31.976  0.00  0.00     0.172 C 
ATOM      6  C5  DMQ d         -12.646  10.215  31.891  0.00  0.00     0.172 C 
ATOM      7  C6  DMQ d         -13.450  11.502  31.916  0.00  0.00     0.124 C 
ATOM      8  N7  DMQ d         -14.289  11.767  33.134  0.00  0.00    -0.322 N 
ENDROOT
BRANCH   3   9
ATOM      9  C2  DMQ d         -16.843   9.098  33.600  0.00  0.00     0.166 C 
BRANCH   9  10
ATOM     10  C20 DMQ d         -17.475   8.520  32.373  0.00  0.00    -0.038 A 
ATOM     11  C29 DMQ d         -18.191   9.332  31.487  0.00  0.00     0.037 A 
ATOM     12  C28 DMQ d         -18.827   8.739  30.376  0.00  0.00     0.026 A 
ATOM     13  C23 DMQ d         -18.708   7.348  30.130  0.00  0.00     0.029 A 
ATOM     14  C22 DMQ d         -17.983   6.537  31.007  0.00  0.00     0.003 A 
ATOM     15  C21 DMQ d         -17.382   7.140  32.125  0.00  0.00     0.009 A 
BRANCH  12  16
ATOM     16  N29 DMQ d         -19.726   9.492  29.574  0.00  0.00    -0.399 N 
ATOM     17  H14 DMQ d         -20.540   9.032  29.142  0.00  0.00     0.156 HD
ATOM     18  H15 DMQ d         -19.565  10.499  29.426  0.00  0.00     0.156 HD
ENDBRANCH  12  16
ENDBRANCH   9  10
ENDBRANCH   3   9
BRANCH   4  19
ATOM     19  C31 DMQ d         -13.505   8.755  34.549  0.00  0.00     0.066 C 
BRANCH  19  20
ATOM     20  C32 DMQ d         -13.783   7.409  35.202  0.00  0.00    -0.056 A 
ATOM     21  C37 DMQ d         -13.417   7.203  36.559  0.00  0.00     0.007 A 
ATOM     22  C36 DMQ d         -13.630   5.946  37.161  0.00  0.00     0.001 A 
ATOM     23  C35 DMQ d         -14.220   4.910  36.400  0.00  0.00     0.000 A 
ATOM     24  C34 DMQ d         -14.592   5.104  35.060  0.00  0.00     0.001 A 
ATOM     25  C33 DMQ d         -14.365   6.350  34.462  0.00  0.00     0.007 A 
ENDBRANCH  19  20
ENDBRANCH   4  19
BRANCH   8  26
ATOM     26  C7  DMQ d         -14.032  13.063  33.815  0.00  0.00     0.166 C 
BRANCH  26  27
ATOM     27  C70 DMQ d         -12.760  13.823  33.504  0.00  0.00    -0.038 A 
ATOM     28  C79 DMQ d         -11.638  13.735  34.364  0.00  0.00     0.009 A 
ATOM     29  C78 DMQ d         -10.499  14.529  34.120  0.00  0.00     0.003 A 
ATOM     30  C77 DMQ d         -10.495  15.420  33.013  0.00  0.00     0.029 A 
ATOM     31  C72 DMQ d         -11.608  15.502  32.151  0.00  0.00     0.026 A 
ATOM     32  C71 DMQ d         -12.735  14.696  32.394  0.00  0.00     0.037 A 
BRANCH  31  33
ATOM     33  N79 DMQ d         -11.590  16.418  31.054  0.00  0.00    -0.399 N 
ATOM     34  H32 DMQ d         -11.484  17.428  31.227  0.00  0.00     0.156 HD
ATOM     35  H33 DMQ d         -11.682  16.067  30.090  0.00  0.00     0.156 HD
ENDBRANCH  31  33
ENDBRANCH  26  27
ENDBRANCH   8  26
BRANCH   5  36
ATOM     36  O4  DMQ d         -12.699   7.807  31.982  0.00  0.00    -0.391 OA
ATOM     37  H5  DMQ d         -11.796   8.039  32.160  0.00  0.00     0.210 HD
ENDBRANCH   5  36
BRANCH   7  38
ATOM     38  C61 DMQ d         -14.290  11.834  30.629  0.00  0.00     0.066 C 
BRANCH  38  39
ATOM     39  C62 DMQ d         -13.694  12.935  29.755  0.00  0.00    -0.056 A 
ATOM     40  C67 DMQ d         -12.365  12.820  29.263  0.00  0.00     0.007 A 
ATOM     41  C66 DMQ d         -11.841  13.789  28.379  0.00  0.00     0.001 A 
ATOM     42  C65 DMQ d         -12.658  14.877  27.996  0.00  0.00     0.000 A 
ATOM     43  C64 DMQ d         -13.973  15.007  28.487  0.00  0.00     0.001 A 
ATOM     44  C63 DMQ d         -14.483  14.038  29.368  0.00  0.00     0.007 A 
ENDBRANCH  38  39
ENDBRANCH   7  38
BRANCH   6  45
ATOM     45  O5  DMQ d         -12.003  10.164  30.670  0.00  0.00    -0.391 OA
ATOM     46  H7  DMQ d         -12.024  11.024  30.266  0.00  0.00     0.210 HD
ENDBRANCH   6  45
TORSDOF 12
ENDMDL
MODEL 15
REMARK VINA RESULT:      -6.4      6.700     11.912
REMARK  12 active torsions:
REMARK  status: ('A' for Active; 'I' for Inactive)
REMARK    1  A    between atoms: N2_3  and  C2_4 
REMARK    2  A    between atoms: C2_4  and  C20_13 
REMARK    3  A    between atoms: C3_5  and  C31_20 
REMARK    4  A    between atoms: C4_6  and  O4_7 
REMARK    5  A    between atoms: C5_8  and  O5_9 
REMARK    6  A    between atoms: C6_10  and  C61_27 
REMARK    7  A    between atoms: N7_11  and  C7_12 
REMARK    8  A    between atoms: C7_12  and  C70_34 
REMARK    9  A    between atoms: C28_17  and  N29_18 
REMARK   10  A    between atoms: C31_20  and  C32_21 
REMARK   11  A    between atoms: C61_27  and  C62_28 
REMARK   12  A    between atoms: C72_36  and  N79_37 
ROOT
ATOM      1  C1  DMQ d         -15.165  10.807  33.407  0.00  0.00     0.322 C 
ATOM      2  O1  DMQ d         -15.987  11.504  33.967  0.00  0.00    -0.247 OA
ATOM      3  N2  DMQ d         -15.549   9.541  33.195  0.00  0.00    -0.322 N 
ATOM      4  C3  DMQ d         -14.566   8.440  32.985  0.00  0.00     0.124 C 
ATOM      5  C4  DMQ d         -13.725   8.467  31.745  0.00  0.00     0.172 C 
ATOM      6  C5  DMQ d         -12.642   9.518  31.734  0.00  0.00     0.172 C 
ATOM      7  C6  DMQ d         -13.155  10.943  31.832  0.00  0.00     0.124 C 
ATOM      8  N7  DMQ d         -13.936  11.312  33.061  0.00  0.00    -0.322 N 
ENDROOT
BRANCH   3   9
ATOM      9  C2  DMQ d         -17.005   9.226  33.368  0.00  0.00     0.166 C 
BRANCH   9  10
ATOM     10  C20 DMQ d         -17.487   8.027  32.612  0.00  0.00    -0.038 A 
ATOM     11  C29 DMQ d         -17.799   8.118  31.251  0.00  0.00     0.037 A 
ATOM     12  C28 DMQ d         -18.311   6.982  30.589  0.00  0.00     0.026 A 
ATOM     13  C23 DMQ d         -18.468   5.752  31.276  0.00  0.00     0.029 A 
ATOM     14  C22 DMQ d         -18.145   5.656  32.632  0.00  0.00     0.003 A 
ATOM     15  C21 DMQ d         -17.664   6.805  33.283  0.00  0.00     0.009 A 
BRANCH  12  16
ATOM     16  N29 DMQ d         -18.830   7.090  29.270  0.00  0.00    -0.399 N 
ATOM     17  H14 DMQ d         -18.620   6.361  28.573  0.00  0.00     0.156 HD
ATOM     18  H15 DMQ d         -19.416   7.896  29.012  0.00  0.00     0.156 HD
ENDBRANCH  12  16
ENDBRANCH   9  10
ENDBRANCH   3   9
BRANCH   4  19
ATOM     19  C31 DMQ d         -13.830   8.128  34.301  0.00  0.00     0.066 C 
BRANCH  19  20
ATOM     20  C32 DMQ d         -14.545   6.975  34.991  0.00  0.00    -0.056 A 
ATOM     21  C37 DMQ d         -14.363   5.651  34.507  0.00  0.00     0.007 A 
ATOM     22  C36 DMQ d         -15.054   4.582  35.112  0.00  0.00     0.001 A 
ATOM     23  C35 DMQ d         -15.913   4.847  36.203  0.00  0.00     0.000 A 
ATOM     24  C34 DMQ d         -16.097   6.150  36.693  0.00  0.00     0.001 A 
ATOM     25  C33 DMQ d         -15.419   7.211  36.081  0.00  0.00     0.007 A 
ENDBRANCH  19  20
ENDBRANCH   4  19
BRANCH   8  26
ATOM     26  C7  DMQ d         -13.419  12.483  33.818  0.00  0.00     0.166 C 
BRANCH  26  27
ATOM     27  C70 DMQ d         -13.043  12.316  35.274  0.00  0.00    -0.038 A 
ATOM     28  C79 DMQ d         -12.335  11.170  35.711  0.00  0.00     0.009 A 
ATOM     29  C78 DMQ d         -12.084  10.977  37.085  0.00  0.00     0.003 A 
ATOM     30  C77 DMQ d         -12.556  11.937  38.021  0.00  0.00     0.029 A 
ATOM     31  C72 DMQ d         -13.253  13.082  37.587  0.00  0.00     0.026 A 
ATOM     32  C71 DMQ d         -13.488  13.275  36.213  0.00  0.00     0.037 A 
BRANCH  31  33
ATOM     33  N79 DMQ d         -13.735  14.026  38.547  0.00  0.00    -0.399 N 
ATOM     34  H32 DMQ d         -13.549  13.881  39.550  0.00  0.00     0.156 HD
ATOM     35  H33 DMQ d         -14.267  14.851  38.235  0.00  0.00     0.156 HD
ENDBRANCH  31  33
ENDBRANCH  26  27
ENDBRANCH   8  26
BRANCH   5  36
ATOM     36  O4  DMQ d         -13.207   7.175  31.685  0.00  0.00    -0.391 OA
ATOM     37  H5  DMQ d         -13.001   6.960  30.783  0.00  0.00     0.210 HD
ENDBRANCH   5  36
BRANCH   7  38
ATOM     38  C61 DMQ d         -13.887  11.519  30.565  0.00  0.00     0.066 C 
BRANCH  38  39
ATOM     39  C62 DMQ d         -13.008  12.395  29.674  0.00  0.00    -0.056 A 
ATOM     40  C67 DMQ d         -12.123  13.345  30.252  0.00  0.00     0.007 A 
ATOM     41  C66 DMQ d         -11.242  14.091  29.439  0.00  0.00     0.001 A 
ATOM     42  C65 DMQ d         -11.258  13.879  28.041  0.00  0.00     0.000 A 
ATOM     43  C64 DMQ d         -12.140  12.948  27.457  0.00  0.00     0.001 A 
ATOM     44  C63 DMQ d         -13.014  12.213  28.276  0.00  0.00     0.007 A 
ENDBRANCH  38  39
ENDBRANCH   7  38
BRANCH   6  45
ATOM     45  O5  DMQ d         -12.007   9.400  30.514  0.00  0.00    -0.391 OA
ATOM     46  H7  DMQ d         -11.342   8.723  30.568  0.00  0.00     0.210 HD
ENDBRANCH   6  45
TORSDOF 12
ENDMDL
MODEL 16
REMARK VINA RESULT:      -6.3      3.035      9.711
REMARK  12 active torsions:
REMARK  status: ('A' for Active; 'I' for Inactive)
REMARK    1  A    between atoms: N2_3  and  C2_4 
REMARK    2  A    between atoms: C2_4  and  C20_13 
REMARK    3  A    between atoms: C3_5  and  C31_20 
REMARK    4  A    between atoms: C4_6  and  O4_7 
REMARK    5  A    between atoms: C5_8  and  O5_9 
REMARK    6  A    between atoms: C6_10  and  C61_27 
REMARK    7  A    between atoms: N7_11  and  C7_12 
REMARK    8  A    between atoms: C7_12  and  C70_34 
REMARK    9  A    between atoms: C28_17  and  N29_18 
REMARK   10  A    between atoms: C31_20  and  C32_21 
REMARK   11  A    between atoms: C61_27  and  C62_28 
REMARK   12  A    between atoms: C72_36  and  N79_37 
ROOT
ATOM      1  C1  DMQ d         -10.401  14.751  31.540  0.00  0.00     0.322 C 
ATOM      2  O1  DMQ d          -9.356  14.670  32.155  0.00  0.00    -0.247 OA
ATOM      3  N2  DMQ d         -10.265  14.896  30.215  0.00  0.00    -0.322 N 
ATOM      4  C3  DMQ d         -11.344  15.483  29.368  0.00  0.00     0.124 C 
ATOM      5  C4  DMQ d         -12.627  14.722  29.226  0.00  0.00     0.172 C 
ATOM      6  C5  DMQ d         -13.506  14.724  30.453  0.00  0.00     0.172 C 
ATOM      7  C6  DMQ d         -12.868  14.094  31.678  0.00  0.00     0.124 C 
ATOM      8  N7  DMQ d         -11.605  14.721  32.198  0.00  0.00    -0.322 N 
ENDROOT
BRANCH   3   9
ATOM      9  C2  DMQ d          -8.913  14.625  29.628  0.00  0.00     0.166 C 
BRANCH   9  10
ATOM     10  C20 DMQ d          -8.789  14.914  28.165  0.00  0.00    -0.038 A 
ATOM     11  C29 DMQ d          -7.657  15.563  27.658  0.00  0.00     0.037 A 
ATOM     12  C28 DMQ d          -7.606  15.876  26.283  0.00  0.00     0.026 A 
ATOM     13  C23 DMQ d          -8.661  15.501  25.415  0.00  0.00     0.029 A 
ATOM     14  C22 DMQ d          -9.787  14.842  25.917  0.00  0.00     0.003 A 
ATOM     15  C21 DMQ d          -9.834  14.565  27.294  0.00  0.00     0.009 A 
BRANCH  12  16
ATOM     16  N29 DMQ d          -6.575  16.710  25.772  0.00  0.00    -0.399 N 
ATOM     17  H14 DMQ d          -6.562  16.960  24.773  0.00  0.00     0.156 HD
ATOM     18  H15 DMQ d          -5.840  17.064  26.401  0.00  0.00     0.156 HD
ENDBRANCH  12  16
ENDBRANCH   9  10
ENDBRANCH   3   9
BRANCH   4  19
ATOM     19  C31 DMQ d         -11.472  16.992  29.646  0.00  0.00     0.066 C 
BRANCH  19  20
ATOM     20  C32 DMQ d         -10.454  17.728  28.786  0.00  0.00    -0.056 A 
ATOM     21  C37 DMQ d          -9.205  18.100  29.350  0.00  0.00     0.007 A 
ATOM     22  C36 DMQ d          -8.272  18.819  28.576  0.00  0.00     0.001 A 
ATOM     23  C35 DMQ d          -8.595  19.148  27.239  0.00  0.00     0.000 A 
ATOM     24  C34 DMQ d          -9.825  18.781  26.669  0.00  0.00     0.001 A 
ATOM     25  C33 DMQ d         -10.754  18.079  27.447  0.00  0.00     0.007 A 
ENDBRANCH  19  20
ENDBRANCH   4  19
BRANCH   8  26
ATOM     26  C7  DMQ d         -11.636  15.125  33.628  0.00  0.00     0.166 C 
BRANCH  26  27
ATOM     27  C70 DMQ d         -11.980  14.093  34.681  0.00  0.00    -0.038 A 
ATOM     28  C79 DMQ d         -11.215  12.908  34.807  0.00  0.00     0.009 A 
ATOM     29  C78 DMQ d         -11.608  11.909  35.721  0.00  0.00     0.003 A 
ATOM     30  C77 DMQ d         -12.780  12.101  36.502  0.00  0.00     0.029 A 
ATOM     31  C72 DMQ d         -13.538  13.284  36.383  0.00  0.00     0.026 A 
ATOM     32  C71 DMQ d         -13.131  14.282  35.479  0.00  0.00     0.037 A 
BRANCH  31  33
ATOM     33  N79 DMQ d         -14.723  13.449  37.165  0.00  0.00    -0.399 N 
ATOM     34  H32 DMQ d         -15.624  13.631  36.701  0.00  0.00     0.156 HD
ATOM     35  H33 DMQ d         -14.675  13.385  38.192  0.00  0.00     0.156 HD
ENDBRANCH  31  33
ENDBRANCH  26  27
ENDBRANCH   8  26
BRANCH   5  36
ATOM     36  O4  DMQ d         -13.240  15.338  28.138  0.00  0.00    -0.391 OA
ATOM     37  H5  DMQ d         -13.751  14.696  27.659  0.00  0.00     0.210 HD
ENDBRANCH   5  36
BRANCH   7  38
ATOM     38  C61 DMQ d         -12.697  12.531  31.659  0.00  0.00     0.066 C 
BRANCH  38  39
ATOM     39  C62 DMQ d         -13.946  11.756  32.074  0.00  0.00    -0.056 A 
ATOM     40  C67 DMQ d         -14.440  11.850  33.404  0.00  0.00     0.007 A 
ATOM     41  C66 DMQ d         -15.646  11.211  33.768  0.00  0.00     0.001 A 
ATOM     42  C65 DMQ d         -16.351  10.473  32.789  0.00  0.00     0.000 A 
ATOM     43  C64 DMQ d         -15.863  10.363  31.471  0.00  0.00     0.001 A 
ATOM     44  C63 DMQ d         -14.661  11.002  31.121  0.00  0.00     0.007 A 
ENDBRANCH  38  39
ENDBRANCH   7  38
BRANCH   6  45
ATOM     45  O5  DMQ d         -14.610  13.958  30.133  0.00  0.00    -0.391 OA
ATOM     46  H7  DMQ d         -15.204  13.936  30.875  0.00  0.00     0.210 HD
ENDBRANCH   6  45
TORSDOF 12
ENDMDL
MODEL 17
REMARK VINA RESULT:      -6.2      8.529     12.202
REMARK  12 active torsions:
REMARK  status: ('A' for Active; 'I' for Inactive)
REMARK    1  A    between atoms: N2_3  and  C2_4 
REMARK    2  A    between atoms: C2_4  and  C20_13 
REMARK    3  A    between atoms: C3_5  and  C31_20 
REMARK    4  A    between atoms: C4_6  and  O4_7 
REMARK    5  A    between atoms: C5_8  and  O5_9 
REMARK    6  A    between atoms: C6_10  and  C61_27 
REMARK    7  A    between atoms: N7_11  and  C7_12 
REMARK    8  A    between atoms: C7_12  and  C70_34 
REMARK    9  A    between atoms: C28_17  and  N29_18 
REMARK   10  A    between atoms: C31_20  and  C32_21 
REMARK   11  A    between atoms: C61_27  and  C62_28 
REMARK   12  A    between atoms: C72_36  and  N79_37 
ROOT
ATOM      1  C1  DMQ d         -12.781   9.633  36.072  0.00  0.00     0.322 C 
ATOM      2  O1  DMQ d         -12.478   8.669  35.398  0.00  0.00    -0.247 OA
ATOM      3  N2  DMQ d         -12.445   9.545  37.366  0.00  0.00    -0.322 N 
ATOM      4  C3  DMQ d         -13.127  10.353  38.418  0.00  0.00     0.124 C 
ATOM      5  C4  DMQ d         -12.945  11.840  38.399  0.00  0.00     0.172 C 
ATOM      6  C5  DMQ d         -13.677  12.555  37.289  0.00  0.00     0.172 C 
ATOM      7  C6  DMQ d         -13.251  12.140  35.893  0.00  0.00     0.124 C 
ATOM      8  N7  DMQ d         -13.442  10.699  35.514  0.00  0.00    -0.322 N 
ENDROOT
BRANCH   3   9
ATOM      9  C2  DMQ d         -11.486   8.461  37.756  0.00  0.00     0.166 C 
BRANCH   9  10
ATOM     10  C20 DMQ d         -12.100   7.301  38.476  0.00  0.00    -0.038 A 
ATOM     11  C29 DMQ d         -11.692   6.967  39.772  0.00  0.00     0.037 A 
ATOM     12  C28 DMQ d         -12.248   5.829  40.393  0.00  0.00     0.026 A 
ATOM     13  C23 DMQ d         -13.238   5.056  39.736  0.00  0.00     0.029 A 
ATOM     14  C22 DMQ d         -13.655   5.395  38.446  0.00  0.00     0.003 A 
ATOM     15  C21 DMQ d         -13.069   6.514  37.831  0.00  0.00     0.009 A 
BRANCH  12  16
ATOM     16  N29 DMQ d         -11.714   5.343  41.617  0.00  0.00    -0.399 N 
ATOM     17  H14 DMQ d         -11.877   5.862  42.492  0.00  0.00     0.156 HD
ATOM     18  H15 DMQ d         -11.164   4.472  41.630  0.00  0.00     0.156 HD
ENDBRANCH  12  16
ENDBRANCH   9  10
ENDBRANCH   3   9
BRANCH   4  19
ATOM     19  C31 DMQ d         -14.566   9.844  38.627  0.00  0.00     0.066 C 
BRANCH  19  20
ATOM     20  C32 DMQ d         -14.620   9.086  39.946  0.00  0.00    -0.056 A 
ATOM     21  C37 DMQ d         -15.576   8.049  40.115  0.00  0.00     0.007 A 
ATOM     22  C36 DMQ d         -15.664   7.369  41.347  0.00  0.00     0.001 A 
ATOM     23  C35 DMQ d         -14.784   7.727  42.394  0.00  0.00     0.000 A 
ATOM     24  C34 DMQ d         -13.831   8.746  42.237  0.00  0.00     0.001 A 
ATOM     25  C33 DMQ d         -13.757   9.429  41.016  0.00  0.00     0.007 A 
ENDBRANCH  19  20
ENDBRANCH   4  19
BRANCH   8  26
ATOM     26  C7  DMQ d         -14.241  10.464  34.282  0.00  0.00     0.166 C 
BRANCH  26  27
ATOM     27  C70 DMQ d         -13.580  10.620  32.930  0.00  0.00    -0.038 A 
ATOM     28  C79 DMQ d         -13.710  11.824  32.196  0.00  0.00     0.009 A 
ATOM     29  C78 DMQ d         -13.179  11.919  30.894  0.00  0.00     0.003 A 
ATOM     30  C77 DMQ d         -12.522  10.793  30.327  0.00  0.00     0.029 A 
ATOM     31  C72 DMQ d         -12.383   9.596  31.059  0.00  0.00     0.026 A 
ATOM     32  C71 DMQ d         -12.904   9.515  32.363  0.00  0.00     0.037 A 
BRANCH  31  33
ATOM     33  N79 DMQ d         -11.735   8.471  30.462  0.00  0.00    -0.399 N 
ATOM     34  H32 DMQ d         -10.791   8.196  30.772  0.00  0.00     0.156 HD
ATOM     35  H33 DMQ d         -12.211   7.934  29.723  0.00  0.00     0.156 HD
ENDBRANCH  31  33
ENDBRANCH  26  27
ENDBRANCH   8  26
BRANCH   5  36
ATOM     36  O4  DMQ d         -13.390  12.229  39.660  0.00  0.00    -0.391 OA
ATOM     37  H5  DMQ d         -13.821  13.074  39.595  0.00  0.00     0.210 HD
ENDBRANCH   5  36
BRANCH   7  38
ATOM     38  C61 DMQ d         -11.829  12.613  35.418  0.00  0.00     0.066 C 
BRANCH  38  39
ATOM     39  C62 DMQ d         -11.846  13.834  34.499  0.00  0.00    -0.056 A 
ATOM     40  C67 DMQ d         -10.631  14.481  34.143  0.00  0.00     0.007 A 
ATOM     41  C66 DMQ d         -10.632  15.550  33.221  0.00  0.00     0.001 A 
ATOM     42  C65 DMQ d         -11.862  15.969  32.661  0.00  0.00     0.000 A 
ATOM     43  C64 DMQ d         -13.073  15.342  33.017  0.00  0.00     0.001 A 
ATOM     44  C63 DMQ d         -13.060  14.280  33.937  0.00  0.00     0.007 A 
ENDBRANCH  38  39
ENDBRANCH   7  38
BRANCH   6  45
ATOM     45  O5  DMQ d         -13.364  13.894  37.426  0.00  0.00    -0.391 OA
ATOM     46  H7  DMQ d         -13.996  14.416  36.946  0.00  0.00     0.210 HD
ENDBRANCH   6  45
TORSDOF 12
ENDMDL
MODEL 18
REMARK VINA RESULT:      -5.9      2.738      8.787
REMARK  12 active torsions:
REMARK  status: ('A' for Active; 'I' for Inactive)
REMARK    1  A    between atoms: N2_3  and  C2_4 
REMARK    2  A    between atoms: C2_4  and  C20_13 
REMARK    3  A    between atoms: C3_5  and  C31_20 
REMARK    4  A    between atoms: C4_6  and  O4_7 
REMARK    5  A    between atoms: C5_8  and  O5_9 
REMARK    6  A    between atoms: C6_10  and  C61_27 
REMARK    7  A    between atoms: N7_11  and  C7_12 
REMARK    8  A    between atoms: C7_12  and  C70_34 
REMARK    9  A    between atoms: C28_17  and  N29_18 
REMARK   10  A    between atoms: C31_20  and  C32_21 
REMARK   11  A    between atoms: C61_27  and  C62_28 
REMARK   12  A    between atoms: C72_36  and  N79_37 
ROOT
ATOM      1  C1  DMQ d         -10.842  14.272  29.914  0.00  0.00     0.322 C 
ATOM      2  O1  DMQ d         -10.077  14.650  30.780  0.00  0.00    -0.247 OA
ATOM      3  N2  DMQ d         -10.291  14.115  28.704  0.00  0.00    -0.322 N 
ATOM      4  C3  DMQ d         -11.105  14.138  27.454  0.00  0.00     0.124 C 
ATOM      5  C4  DMQ d         -12.089  13.031  27.228  0.00  0.00     0.172 C 
ATOM      6  C5  DMQ d         -13.318  13.085  28.103  0.00  0.00     0.172 C 
ATOM      7  C6  DMQ d         -13.031  12.990  29.589  0.00  0.00     0.124 C 
ATOM      8  N7  DMQ d         -12.170  14.062  30.195  0.00  0.00    -0.322 N 
ENDROOT
BRANCH   3   9
ATOM      9  C2  DMQ d          -8.794  14.106  28.625  0.00  0.00     0.166 C 
BRANCH   9  10
ATOM     10  C20 DMQ d          -8.163  15.448  28.427  0.00  0.00    -0.038 A 
ATOM     11  C29 DMQ d          -8.507  16.528  29.248  0.00  0.00     0.037 A 
ATOM     12  C28 DMQ d          -7.938  17.793  28.989  0.00  0.00     0.026 A 
ATOM     13  C23 DMQ d          -6.998  17.965  27.943  0.00  0.00     0.029 A 
ATOM     14  C22 DMQ d          -6.644  16.885  27.129  0.00  0.00     0.003 A 
ATOM     15  C21 DMQ d          -7.242  15.639  27.383  0.00  0.00     0.009 A 
BRANCH  12  16
ATOM     16  N29 DMQ d          -8.415  18.949  29.664  0.00  0.00    -0.399 N 
ATOM     17  H14 DMQ d          -9.216  19.474  29.284  0.00  0.00     0.156 HD
ATOM     18  H15 DMQ d          -7.961  19.262  30.534  0.00  0.00     0.156 HD
ENDBRANCH  12  16
ENDBRANCH   9  10
ENDBRANCH   3   9
BRANCH   4  19
ATOM     19  C31 DMQ d         -11.610  15.567  27.177  0.00  0.00     0.066 C 
BRANCH  19  20
ATOM     20  C32 DMQ d         -10.652  16.234  26.200  0.00  0.00    -0.056 A 
ATOM     21  C37 DMQ d         -10.368  17.619  26.338  0.00  0.00     0.007 A 
ATOM     22  C36 DMQ d          -9.516  18.256  25.413  0.00  0.00     0.001 A 
ATOM     23  C35 DMQ d          -8.947  17.496  24.365  0.00  0.00     0.000 A 
ATOM     24  C34 DMQ d          -9.216  16.125  24.223  0.00  0.00     0.001 A 
ATOM     25  C33 DMQ d         -10.074  15.499  25.135  0.00  0.00     0.007 A 
ENDBRANCH  19  20
ENDBRANCH   4  19
BRANCH   8  26
ATOM     26  C7  DMQ d         -12.767  14.783  31.351  0.00  0.00     0.166 C 
BRANCH  26  27
ATOM     27  C70 DMQ d         -12.117  14.667  32.712  0.00  0.00    -0.038 A 
ATOM     28  C79 DMQ d         -12.446  13.597  33.581  0.00  0.00     0.009 A 
ATOM     29  C78 DMQ d         -11.913  13.559  34.885  0.00  0.00     0.003 A 
ATOM     30  C77 DMQ d         -11.054  14.605  35.318  0.00  0.00     0.029 A 
ATOM     31  C72 DMQ d         -10.719  15.665  34.452  0.00  0.00     0.026 A 
ATOM     32  C71 DMQ d         -11.244  15.689  33.147  0.00  0.00     0.037 A 
BRANCH  31  33
ATOM     33  N79 DMQ d          -9.867  16.717  34.913  0.00  0.00    -0.399 N 
ATOM     34  H32 DMQ d          -9.749  16.877  35.924  0.00  0.00     0.156 HD
ATOM     35  H33 DMQ d          -9.373  17.313  34.235  0.00  0.00     0.156 HD
ENDBRANCH  31  33
ENDBRANCH  26  27
ENDBRANCH   8  26
BRANCH   5  36
ATOM     36  O4  DMQ d         -12.398  13.154  25.876  0.00  0.00    -0.391 OA
ATOM     37  H5  DMQ d         -12.296  12.310  25.451  0.00  0.00     0.210 HD
ENDBRANCH   5  36
BRANCH   7  38
ATOM     38  C61 DMQ d         -12.566  11.589  30.131  0.00  0.00     0.066 C 
BRANCH  38  39
ATOM     39  C62 DMQ d         -13.480  10.992  31.199  0.00  0.00    -0.056 A 
ATOM     40  C67 DMQ d         -14.879  11.243  31.168  0.00  0.00     0.007 A 
ATOM     41  C66 DMQ d         -15.740  10.619  32.098  0.00  0.00     0.001 A 
ATOM     42  C65 DMQ d         -15.187   9.744  33.061  0.00  0.00     0.000 A 
ATOM     43  C64 DMQ d         -13.799   9.498  33.108  0.00  0.00     0.001 A 
ATOM     44  C63 DMQ d         -12.952  10.126  32.179  0.00  0.00     0.007 A 
ENDBRANCH  38  39
ENDBRANCH   7  38
BRANCH   6  45
ATOM     45  O5  DMQ d         -14.076  11.981  27.766  0.00  0.00    -0.391 OA
ATOM     46  H7  DMQ d         -14.015  11.830  26.830  0.00  0.00     0.210 HD
ENDBRANCH   6  45
TORSDOF 12
ENDMDL
MODEL 19
REMARK VINA RESULT:      -5.7      8.257     12.359
REMARK  12 active torsions:
REMARK  status: ('A' for Active; 'I' for Inactive)
REMARK    1  A    between atoms: N2_3  and  C2_4 
REMARK    2  A    between atoms: C2_4  and  C20_13 
REMARK    3  A    between atoms: C3_5  and  C31_20 
REMARK    4  A    between atoms: C4_6  and  O4_7 
REMARK    5  A    between atoms: C5_8  and  O5_9 
REMARK    6  A    between atoms: C6_10  and  C61_27 
REMARK    7  A    between atoms: N7_11  and  C7_12 
REMARK    8  A    between atoms: C7_12  and  C70_34 
REMARK    9  A    between atoms: C28_17  and  N29_18 
REMARK   10  A    between atoms: C31_20  and  C32_21 
REMARK   11  A    between atoms: C61_27  and  C62_28 
REMARK   12  A    between atoms: C72_36  and  N79_37 
ROOT
ATOM      1  C1  DMQ d         -12.820  10.050  35.415  0.00  0.00     0.322 C 
ATOM      2  O1  DMQ d         -12.384   9.165  34.705  0.00  0.00    -0.247 OA
ATOM      3  N2  DMQ d         -12.740   9.808  36.730  0.00  0.00    -0.322 N 
ATOM      4  C3  DMQ d         -13.621  10.498  37.717  0.00  0.00     0.124 C 
ATOM      5  C4  DMQ d         -13.452  11.975  37.906  0.00  0.00     0.172 C 
ATOM      6  C5  DMQ d         -13.961  12.824  36.766  0.00  0.00     0.172 C 
ATOM      7  C6  DMQ d         -13.270  12.567  35.440  0.00  0.00     0.124 C 
ATOM      8  N7  DMQ d         -13.370  11.182  34.866  0.00  0.00    -0.322 N 
ENDROOT
BRANCH   3   9
ATOM      9  C2  DMQ d         -11.865   8.673  37.169  0.00  0.00     0.166 C 
BRANCH   9  10
ATOM     10  C20 DMQ d         -12.596   7.436  37.589  0.00  0.00    -0.038 A 
ATOM     11  C29 DMQ d         -12.388   6.878  38.855  0.00  0.00     0.037 A 
ATOM     12  C28 DMQ d         -13.046   5.676  39.190  0.00  0.00     0.026 A 
ATOM     13  C23 DMQ d         -13.940   5.061  38.279  0.00  0.00     0.029 A 
ATOM     14  C22 DMQ d         -14.159   5.623  37.018  0.00  0.00     0.003 A 
ATOM     15  C21 DMQ d         -13.472   6.805  36.690  0.00  0.00     0.009 A 
BRANCH  12  16
ATOM     16  N29 DMQ d         -12.705   4.974  40.379  0.00  0.00    -0.399 N 
ATOM     17  H14 DMQ d         -12.519   5.495  41.248  0.00  0.00     0.156 HD
ATOM     18  H15 DMQ d         -12.644   3.946  40.370  0.00  0.00     0.156 HD
ENDBRANCH  12  16
ENDBRANCH   9  10
ENDBRANCH   3   9
BRANCH   4  19
ATOM     19  C31 DMQ d         -15.068   9.988  37.583  0.00  0.00     0.066 C 
BRANCH  19  20
ATOM     20  C32 DMQ d         -15.373   9.090  38.774  0.00  0.00    -0.056 A 
ATOM     21  C37 DMQ d         -14.659   9.276  39.988  0.00  0.00     0.007 A 
ATOM     22  C36 DMQ d         -14.904   8.422  41.083  0.00  0.00     0.001 A 
ATOM     23  C35 DMQ d         -15.871   7.398  40.955  0.00  0.00     0.000 A 
ATOM     24  C34 DMQ d         -16.586   7.209  39.761  0.00  0.00     0.001 A 
ATOM     25  C33 DMQ d         -16.330   8.050  38.672  0.00  0.00     0.007 A 
ENDBRANCH  19  20
ENDBRANCH   4  19
BRANCH   8  26
ATOM     26  C7  DMQ d         -13.913  11.102  33.485  0.00  0.00     0.166 C 
BRANCH  26  27
ATOM     27  C70 DMQ d         -15.315  10.575  33.270  0.00  0.00    -0.038 A 
ATOM     28  C79 DMQ d         -15.634   9.822  32.113  0.00  0.00     0.009 A 
ATOM     29  C78 DMQ d         -16.966   9.427  31.874  0.00  0.00     0.003 A 
ATOM     30  C77 DMQ d         -17.980   9.800  32.798  0.00  0.00     0.029 A 
ATOM     31  C72 DMQ d         -17.663  10.541  33.953  0.00  0.00     0.026 A 
ATOM     32  C71 DMQ d         -16.329  10.919  34.192  0.00  0.00     0.037 A 
BRANCH  31  33
ATOM     33  N79 DMQ d         -18.700  10.921  34.860  0.00  0.00    -0.399 N 
ATOM     34  H32 DMQ d         -19.132  10.215  35.474  0.00  0.00     0.156 HD
ATOM     35  H33 DMQ d         -19.016  11.900  34.900  0.00  0.00     0.156 HD
ENDBRANCH  31  33
ENDBRANCH  26  27
ENDBRANCH   8  26
BRANCH   5  36
ATOM     36  O4  DMQ d         -14.137  12.222  39.093  0.00  0.00    -0.391 OA
ATOM     37  H5  DMQ d         -15.061  12.340  38.906  0.00  0.00     0.210 HD
ENDBRANCH   5  36
BRANCH   7  38
ATOM     38  C61 DMQ d         -11.787  13.072  35.307  0.00  0.00     0.066 C 
BRANCH  38  39
ATOM     39  C62 DMQ d         -11.593  14.193  34.288  0.00  0.00    -0.056 A 
ATOM     40  C67 DMQ d         -10.380  14.933  34.258  0.00  0.00     0.007 A 
ATOM     41  C66 DMQ d         -10.158  15.907  33.258  0.00  0.00     0.001 A 
ATOM     42  C65 DMQ d         -11.165  16.135  32.291  0.00  0.00     0.000 A 
ATOM     43  C64 DMQ d         -12.376  15.414  32.320  0.00  0.00     0.001 A 
ATOM     44  C63 DMQ d         -12.586  14.450  33.320  0.00  0.00     0.007 A 
ENDBRANCH  38  39
ENDBRANCH   7  38
BRANCH   6  45
ATOM     45  O5  DMQ d         -13.693  14.133  37.115  0.00  0.00    -0.391 OA
ATOM     46  H7  DMQ d         -13.745  14.224  38.059  0.00  0.00     0.210 HD
ENDBRANCH   6  45
TORSDOF 12
ENDMDL
MODEL 20
REMARK VINA RESULT:      -5.6      7.191     11.137
REMARK  12 active torsions:
REMARK  status: ('A' for Active; 'I' for Inactive)
REMARK    1  A    between atoms: N2_3  and  C2_4 
REMARK    2  A    between atoms: C2_4  and  C20_13 
REMARK    3  A    between atoms: C3_5  and  C31_20 
REMARK    4  A    between atoms: C4_6  and  O4_7 
REMARK    5  A    between atoms: C5_8  and  O5_9 
REMARK    6  A    between atoms: C6_10  and  C61_27 
REMARK    7  A    between atoms: N7_11  and  C7_12 
REMARK    8  A    between atoms: C7_12  and  C70_34 
REMARK    9  A    between atoms: C28_17  and  N29_18 
REMARK   10  A    between atoms: C31_20  and  C32_21 
REMARK   11  A    between atoms: C61_27  and  C62_28 
REMARK   12  A    between atoms: C72_36  and  N79_37 
ROOT
ATOM      1  C1  DMQ d         -13.236   9.258  34.150  0.00  0.00     0.322 C 
ATOM      2  O1  DMQ d         -12.212   8.848  34.659  0.00  0.00    -0.247 OA
ATOM      3  N2  DMQ d         -14.195   9.607  35.018  0.00  0.00    -0.322 N 
ATOM      4  C3  DMQ d         -15.634   9.663  34.627  0.00  0.00     0.124 C 
ATOM      5  C4  DMQ d         -16.058  10.698  33.630  0.00  0.00     0.172 C 
ATOM      6  C5  DMQ d         -15.621  10.430  32.210  0.00  0.00     0.172 C 
ATOM      7  C6  DMQ d         -14.116  10.370  32.023  0.00  0.00     0.124 C 
ATOM      8  N7  DMQ d         -13.367   9.314  32.785  0.00  0.00    -0.322 N 
ENDROOT
BRANCH   3   9
ATOM      9  C2  DMQ d         -13.801   9.758  36.456  0.00  0.00     0.166 C 
BRANCH   9  10
ATOM     10  C20 DMQ d         -14.494  10.864  37.189  0.00  0.00    -0.038 A 
ATOM     11  C29 DMQ d         -14.019  12.178  37.116  0.00  0.00     0.037 A 
ATOM     12  C28 DMQ d         -14.660  13.181  37.872  0.00  0.00     0.026 A 
ATOM     13  C23 DMQ d         -15.796  12.877  38.663  0.00  0.00     0.029 A 
ATOM     14  C22 DMQ d         -16.279  11.568  38.729  0.00  0.00     0.003 A 
ATOM     15  C21 DMQ d         -15.610  10.576  37.992  0.00  0.00     0.009 A 
BRANCH  12  16
ATOM     16  N29 DMQ d         -14.087  14.477  37.984  0.00  0.00    -0.399 N 
ATOM     17  H14 DMQ d         -13.789  14.983  37.137  0.00  0.00     0.156 HD
ATOM     18  H15 DMQ d         -13.969  14.910  38.911  0.00  0.00     0.156 HD
ENDBRANCH  12  16
ENDBRANCH   9  10
ENDBRANCH   3   9
BRANCH   4  19
ATOM     19  C31 DMQ d         -16.178   8.239  34.406  0.00  0.00     0.066 C 
BRANCH  19  20
ATOM     20  C32 DMQ d         -16.697   7.711  35.736  0.00  0.00    -0.056 A 
ATOM     21  C37 DMQ d         -15.978   6.687  36.408  0.00  0.00     0.007 A 
ATOM     22  C36 DMQ d         -16.473   6.161  37.619  0.00  0.00     0.001 A 
ATOM     23  C35 DMQ d         -17.677   6.676  38.152  0.00  0.00     0.000 A 
ATOM     24  C34 DMQ d         -18.393   7.693  37.500  0.00  0.00     0.001 A 
ATOM     25  C33 DMQ d         -17.906   8.202  36.290  0.00  0.00     0.007 A 
ENDBRANCH  19  20
ENDBRANCH   4  19
BRANCH   8  26
ATOM     26  C7  DMQ d         -12.524   8.410  31.959  0.00  0.00     0.166 C 
BRANCH  26  27
ATOM     27  C70 DMQ d         -13.163   7.219  31.277  0.00  0.00    -0.038 A 
ATOM     28  C79 DMQ d         -14.402   6.706  31.732  0.00  0.00     0.009 A 
ATOM     29  C78 DMQ d         -14.935   5.535  31.157  0.00  0.00     0.003 A 
ATOM     30  C77 DMQ d         -14.212   4.874  30.126  0.00  0.00     0.029 A 
ATOM     31  C72 DMQ d         -12.983   5.389  29.666  0.00  0.00     0.026 A 
ATOM     32  C71 DMQ d         -12.465   6.566  30.236  0.00  0.00     0.037 A 
BRANCH  31  33
ATOM     33  N79 DMQ d         -12.264   4.699  28.642  0.00  0.00    -0.399 N 
ATOM     34  H32 DMQ d         -11.234   4.709  28.639  0.00  0.00     0.156 HD
ATOM     35  H33 DMQ d         -12.776   4.190  27.907  0.00  0.00     0.156 HD
ENDBRANCH  31  33
ENDBRANCH  26  27
ENDBRANCH   8  26
BRANCH   5  36
ATOM     36  O4  DMQ d         -17.445  10.712  33.760  0.00  0.00    -0.391 OA
ATOM     37  H5  DMQ d         -17.817  10.004  33.247  0.00  0.00     0.210 HD
ENDBRANCH   5  36
BRANCH   7  38
ATOM     38  C61 DMQ d         -13.337  11.732  32.129  0.00  0.00     0.066 C 
BRANCH  38  39
ATOM     39  C62 DMQ d         -12.814  12.264  30.796  0.00  0.00    -0.056 A 
ATOM     40  C67 DMQ d         -12.983  11.506  29.606  0.00  0.00     0.007 A 
ATOM     41  C66 DMQ d         -12.585  12.034  28.357  0.00  0.00     0.001 A 
ATOM     42  C65 DMQ d         -12.013  13.326  28.313  0.00  0.00     0.000 A 
ATOM     43  C64 DMQ d         -11.830  14.081  29.489  0.00  0.00     0.001 A 
ATOM     44  C63 DMQ d         -12.228  13.545  30.726  0.00  0.00     0.007 A 
ENDBRANCH  38  39
ENDBRANCH   7  38
BRANCH   6  45
ATOM     45  O5  DMQ d         -16.079  11.496  31.462  0.00  0.00    -0.391 OA
ATOM     46  H7  DMQ d         -15.343  12.033  31.193  0.00  0.00     0.210 HD
ENDBRANCH   6  45
TORSDOF 12
ENDMDL
