MODEL 1
REMARK VINA RESULT:     -12.8      0.000      0.000
REMARK  12 active torsions:
REMARK  status: ('A' for Active; 'I' for Inactive)
REMARK    1  A    between atoms: N2_3  and  C2_4 
REMARK    2  A    between atoms: C2_4  and  C20_13 
REMARK    3  A    between atoms: C3_5  and  C31_20 
REMARK    4  A    between atoms: C4_6  and  O4_7 
REMARK    5  A    between atoms: C5_8  and  O5_9 
REMARK    6  A    between atoms: C6_10  and  C61_27 
REMARK    7  A    between atoms: N7_11  and  C7_12 
REMARK    8  A    between atoms: C7_12  and  C70_34 
REMARK    9  A    between atoms: C28_17  and  N29_18 
REMARK   10  A    between atoms: C31_20  and  C32_21 
REMARK   11  A    between atoms: C61_27  and  C62_28 
REMARK   12  A    between atoms: C72_36  and  N79_37 
ROOT
ATOM      1  C1  DMQ d          -8.753  15.466  27.569  0.00  0.00     0.322 C 
ATOM      2  O1  DMQ d          -8.063  14.470  27.656  0.00  0.00    -0.247 OA
ATOM      3  N2  DMQ d          -9.648  15.619  28.554  0.00  0.00    -0.322 N 
ATOM      4  C3  DMQ d         -10.869  16.461  28.390  0.00  0.00     0.124 C 
ATOM      5  C4  DMQ d         -10.694  17.939  28.223  0.00  0.00     0.172 C 
ATOM      6  C5  DMQ d         -10.146  18.366  26.882  0.00  0.00     0.172 C 
ATOM      7  C6  DMQ d          -8.765  17.820  26.570  0.00  0.00     0.124 C 
ATOM      8  N7  DMQ d          -8.612  16.327  26.509  0.00  0.00    -0.322 N 
ENDROOT
BRANCH   3   9
ATOM      9  C2  DMQ d          -9.485  14.761  29.772  0.00  0.00     0.166 C 
BRANCH   9  10
ATOM     10  C20 DMQ d          -9.295  15.510  31.054  0.00  0.00    -0.038 A 
ATOM     11  C29 DMQ d         -10.114  15.255  32.159  0.00  0.00     0.037 A 
ATOM     12  C28 DMQ d          -9.946  16.026  33.329  0.00  0.00     0.026 A 
ATOM     13  C23 DMQ d          -8.936  17.017  33.404  0.00  0.00     0.029 A 
ATOM     14  C22 DMQ d          -8.109  17.266  32.305  0.00  0.00     0.003 A 
ATOM     15  C21 DMQ d          -8.310  16.508  31.138  0.00  0.00     0.009 A 
BRANCH  12  16
ATOM     16  N29 DMQ d         -10.885  15.937  34.391  0.00  0.00    -0.399 N 
ATOM     17  H14 DMQ d         -10.742  16.484  35.253  0.00  0.00     0.156 HD
ATOM     18  H15 DMQ d         -11.710  15.327  34.300  0.00  0.00     0.156 HD
ENDBRANCH  12  16
ENDBRANCH   9  10
ENDBRANCH   3   9
BRANCH   4  19
ATOM     19  C31 DMQ d         -11.859  15.778  27.428  0.00  0.00     0.066 C 
BRANCH  19  20
ATOM     20  C32 DMQ d         -12.411  14.534  28.110  0.00  0.00    -0.056 A 
ATOM     21  C37 DMQ d         -12.077  13.252  27.598  0.00  0.00     0.007 A 
ATOM     22  C36 DMQ d         -12.618  12.095  28.196  0.00  0.00     0.001 A 
ATOM     23  C35 DMQ d         -13.478  12.234  29.309  0.00  0.00     0.000 A 
ATOM     24  C34 DMQ d         -13.811  13.496  29.827  0.00  0.00     0.001 A 
ATOM     25  C33 DMQ d         -13.283  14.643  29.222  0.00  0.00     0.007 A 
ENDBRANCH  19  20
ENDBRANCH   4  19
BRANCH   8  26
ATOM     26  C7  DMQ d          -8.038  15.797  25.244  0.00  0.00     0.166 C 
BRANCH  26  27
ATOM     27  C70 DMQ d          -8.532  16.341  23.921  0.00  0.00    -0.038 A 
ATOM     28  C79 DMQ d          -9.828  16.022  23.448  0.00  0.00     0.009 A 
ATOM     29  C78 DMQ d         -10.236  16.449  22.168  0.00  0.00     0.003 A 
ATOM     30  C77 DMQ d          -9.333  17.191  21.360  0.00  0.00     0.029 A 
ATOM     31  C72 DMQ d          -8.045  17.516  21.833  0.00  0.00     0.026 A 
ATOM     32  C71 DMQ d          -7.650  17.099  23.117  0.00  0.00     0.037 A 
BRANCH  31  33
ATOM     33  N79 DMQ d          -7.146  18.248  20.997  0.00  0.00    -0.399 N 
ATOM     34  H32 DMQ d          -7.372  18.397  20.003  0.00  0.00     0.156 HD
ATOM     35  H33 DMQ d          -6.272  18.627  21.388  0.00  0.00     0.156 HD
ENDBRANCH  31  33
ENDBRANCH  26  27
ENDBRANCH   8  26
BRANCH   5  36
ATOM     36  O4  DMQ d         -11.974  18.438  28.452  0.00  0.00    -0.391 OA
ATOM     37  H5  DMQ d         -11.981  19.374  28.291  0.00  0.00     0.210 HD
ENDBRANCH   5  36
BRANCH   7  38
ATOM     38  C61 DMQ d          -7.565  18.427  27.385  0.00  0.00     0.066 C 
BRANCH  38  39
ATOM     39  C62 DMQ d          -6.216  18.346  26.673  0.00  0.00    -0.056 A 
ATOM     40  C67 DMQ d          -5.258  17.370  27.061  0.00  0.00     0.007 A 
ATOM     41  C66 DMQ d          -4.048  17.228  26.345  0.00  0.00     0.001 A 
ATOM     42  C65 DMQ d          -3.805  18.077  25.240  0.00  0.00     0.000 A 
ATOM     43  C64 DMQ d          -4.743  19.056  24.855  0.00  0.00     0.001 A 
ATOM     44  C63 DMQ d          -5.943  19.188  25.576  0.00  0.00     0.007 A 
ENDBRANCH  38  39
ENDBRANCH   7  38
BRANCH   6  45
ATOM     45  O5  DMQ d         -10.034  19.742  26.936  0.00  0.00    -0.391 OA
ATOM     46  H7  DMQ d          -9.305  19.977  27.498  0.00  0.00     0.210 HD
ENDBRANCH   6  45
TORSDOF 12
ENDMDL
