@<TRIPOS>MOLECULE
ZINC000010172811
67    69    1     0     0
SMALL
USER_CHARGES
@<TRIPOS>ATOM
1      C1      2.3033    1.0132    1.3048 C.3      1 ZINC000010172811   -0.1600
2      C2      1.9039   -0.4449    1.0692 C.3      1 ZINC000010172811   -0.1200
3      C3      2.5948   -0.9654   -0.1928 C.3      1 ZINC000010172811   -0.0700
4      C4      4.1086   -0.9909    0.0282 C.3      1 ZINC000010172811   -0.1200
5      C5      4.8072   -1.3919   -1.2726 C.3      1 ZINC000010172811   -0.1600
6      C6      2.1075   -2.3593   -0.4937 C.ar     1 ZINC000010172811    0.0600
7      C7      2.2800   -3.3848    0.4232 C.ar     1 ZINC000010172811   -0.1300
8      C8      1.8200   -4.6505    0.1124 C.ar     1 ZINC000010172811    0.1300
9      N9      1.2241   -4.8876   -1.0398 N.ar     1 ZINC000010172811   -0.3300
10     C10     0.7504   -6.2426   -1.3324 C.3      1 ZINC000010172811    0.0700
11     C11    -0.7395   -6.2163   -1.5573 C.2      1 ZINC000010172811    0.4200
12     O12    -1.1816   -6.1305   -2.6841 O.2      1 ZINC000010172811   -0.4200
13     C13    -1.6539   -6.2943   -0.4160 C.2      1 ZINC000010172811   -0.2900
14     C14    -3.0355   -6.2881   -0.4536 C.2      1 ZINC000010172811    0.1500
15     C15    -3.8858   -6.1978   -1.6945 C.3      1 ZINC000010172811   -0.1100
16     N16    -3.4896   -6.3766    0.8092 N.pl3    1 ZINC000010172811   -0.4300
17     C17    -4.9044   -6.3999    1.1888 C.3      1 ZINC000010172811    0.0500
18     C18    -2.4467   -6.4416    1.6874 C.2      1 ZINC000010172811    0.0400
19     C19    -2.5718   -6.5477    3.1855 C.3      1 ZINC000010172811   -0.1000
20     C20    -1.2910   -6.4016    1.0034 C.2      1 ZINC000010172811   -0.1700
21     C21     1.4364   -6.7581   -2.5712 C.2      1 ZINC000010172811    0.2300
22     S22     2.4982   -5.8404   -3.3376 S.2      1 ZINC000010172811   -0.3700
23     N23     1.1550   -7.9925   -3.0332 N.am     1 ZINC000010172811   -0.5600
24     C24     1.7240   -8.4377   -4.2327 C.ar     1 ZINC000010172811    0.0600
25     C25     3.0779   -8.2442   -4.4734 C.ar     1 ZINC000010172811   -0.0300
26     C26     3.6382   -8.6835   -5.6565 C.ar     1 ZINC000010172811   -0.1300
27     C27     2.8489   -9.3179   -6.6047 C.ar     1 ZINC000010172811    0.1300
28     O28     3.4015   -9.7506   -7.7693 O.3      1 ZINC000010172811   -0.3100
29     C29     2.5303  -10.3956   -8.7004 C.3      1 ZINC000010172811    0.4100
30     F30     1.9701  -11.5311   -8.1054 F        1 ZINC000010172811   -0.2000
31     F31     1.5105   -9.5133   -9.0731 F        1 ZINC000010172811   -0.2000
32     C32     1.4963   -9.5116   -6.3650 C.ar     1 ZINC000010172811   -0.1800
33     C33     0.9357   -9.0780   -5.1799 C.ar     1 ZINC000010172811   -0.0600
34     C34     1.0430   -3.9367   -1.9354 C.ar     1 ZINC000010172811    0.1800
35     C35     1.4710   -2.6454   -1.6918 C.ar     1 ZINC000010172811   -0.1300
36     H36     3.3842    1.0783    1.4293 H        1 ZINC000010172811    0.0600
37     H37     1.9991    1.6160    0.4492 H        1 ZINC000010172811    0.0600
38     H38     1.8110    1.3839    2.2039 H        1 ZINC000010172811    0.0600
39     H39     2.2081   -1.0477    1.9249 H        1 ZINC000010172811    0.0700
40     H40     0.8230   -0.5100    0.9448 H        1 ZINC000010172811    0.0700
41     H41     2.3611   -0.3097   -1.0316 H        1 ZINC000010172811    0.1000
42     H42     4.4481   -0.0009    0.3327 H        1 ZINC000010172811    0.0900
43     H43     4.3498   -1.7135    0.8078 H        1 ZINC000010172811    0.0700
44     H44     5.8856   -1.4101   -1.1152 H        1 ZINC000010172811    0.0700
45     H45     4.4677   -2.3819   -1.5771 H        1 ZINC000010172811    0.0500
46     H46     4.5660   -0.6694   -2.0522 H        1 ZINC000010172811    0.0600
47     H47     2.7679   -3.1971    1.3683 H        1 ZINC000010172811    0.1800
48     H48     1.9505   -5.4548    0.8213 H        1 ZINC000010172811    0.2000
49     H49     0.9793   -6.8971   -0.4913 H        1 ZINC000010172811    0.1800
50     H50    -4.0934   -7.2011   -2.0665 H        1 ZINC000010172811    0.0900
51     H51    -4.8243   -5.6971   -1.4563 H        1 ZINC000010172811    0.0800
52     H52    -3.3547   -5.6297   -2.4583 H        1 ZINC000010172811    0.1000
53     H53    -5.2579   -7.4308    1.2102 H        1 ZINC000010172811    0.0900
54     H54    -5.0229   -5.9547    2.1767 H        1 ZINC000010172811    0.1000
55     H55    -5.4849   -5.8317    0.4621 H        1 ZINC000010172811    0.0900
56     H56    -2.6045   -7.5984    3.4738 H        1 ZINC000010172811    0.0800
57     H57    -1.7137   -6.0683    3.6566 H        1 ZINC000010172811    0.0900
58     H58    -3.4875   -6.0533    3.5096 H        1 ZINC000010172811    0.0700
59     H59    -0.2934   -6.4352    1.4157 H        1 ZINC000010172811    0.1500
60     H60     0.5584   -8.5726   -2.5347 H        1 ZINC000010172811    0.4100
61     H61     3.6924   -7.7500   -3.7355 H        1 ZINC000010172811    0.1500
62     H62     4.6910   -8.5327   -5.8439 H        1 ZINC000010172811    0.1500
63     H63     3.0967  -10.6902   -9.5839 H        1 ZINC000010172811    0.1900
64     H64     0.8825  -10.0057   -7.1037 H        1 ZINC000010172811    0.1500
65     H65    -0.1172   -9.2292   -4.9933 H        1 ZINC000010172811    0.1400
66     H66     0.5510   -4.1689   -2.8683 H        1 ZINC000010172811    0.2000
67     H67     1.3194   -1.8709   -2.4291 H        1 ZINC000010172811    0.1800
@<TRIPOS>BOND
1     1     2     1
2     1     36    1
3     1     37    1
4     1     38    1
5     2     3     1
6     2     39    1
7     2     40    1
8     3     4     1
9     3     6     1
10    3     41    1
11    4     5     1
12    4     42    1
13    4     43    1
14    5     44    1
15    5     45    1
16    5     46    1
17    6     35    ar
18    6     7     ar
19    7     8     ar
20    7     47    1
21    8     9     ar
22    8     48    1
23    9     10    1
24    9     34    ar
25    10    11    1
26    10    21    1
27    10    49    1
28    11    12    2
29    11    13    1
30    13    20    1
31    13    14    2
32    14    15    1
33    14    16    1
34    15    50    1
35    15    51    1
36    15    52    1
37    16    17    1
38    16    18    1
39    17    53    1
40    17    54    1
41    17    55    1
42    18    19    1
43    18    20    2
44    19    56    1
45    19    57    1
46    19    58    1
47    20    59    1
48    21    22    2
49    21    23    am
50    23    24    1
51    23    60    1
52    24    33    ar
53    24    25    ar
54    25    26    ar
55    25    61    1
56    26    27    ar
57    26    62    1
58    27    28    1
59    27    32    ar
60    28    29    1
61    29    30    1
62    29    31    1
63    29    63    1
64    32    33    ar
65    32    64    1
66    33    65    1
67    34    35    ar
68    34    66    1
69    35    67    1
@<TRIPOS>SUBSTRUCTURE
1   ZINC000010172811 1     RESIDUE    1   A     ZIN   1
