@<TRIPOS>MOLECULE
ZINC000010172413
62    65    1     0     0
SMALL
USER_CHARGES
@<TRIPOS>ATOM
1      C1      3.3186    0.4597    4.9070 C.3      1 ZINC000010172413    0.0300
2      O2      3.0344   -0.7600    4.1723 O.3      1 ZINC000010172413   -0.3500
3      C3      2.4184   -1.7509    4.8466 C.2      1 ZINC000010172413    0.5400
4      O4      2.1267   -1.5998    6.0166 O.2      1 ZINC000010172413   -0.4800
5      C5      2.0987   -3.0170    4.1656 C.2      1 ZINC000010172413   -0.2100
6      C6      2.9085   -4.1370    4.0909 C.2      1 ZINC000010172413    0.1700
7      C7      4.2810   -4.2707    4.6988 C.3      1 ZINC000010172413   -0.1100
8      N8      2.2690   -5.0835    3.3884 N.pl3    1 ZINC000010172413   -0.5300
9      C9      1.0371   -4.6031    2.9932 C.2      1 ZINC000010172413   -0.1100
10     C10     0.0734   -5.3096    2.2343 C.2      1 ZINC000010172413    0.4500
11     O11    -0.9802   -4.7795    1.9464 O.2      1 ZINC000010172413   -0.4100
12     C12     0.3553   -6.7198    1.7838 C.3      1 ZINC000010172413    0.0600
13     C13    -0.0193   -7.6821    2.8815 C.2      1 ZINC000010172413    0.1800
14     S14    -0.9486   -7.1958    4.0884 S.2      1 ZINC000010172413   -0.2800
15     N15     0.4291   -8.9526    2.8458 N.am     1 ZINC000010172413   -0.5700
16     C16     0.0189   -9.8674    3.8233 C.ar     1 ZINC000010172413    0.0500
17     C17     0.9237  -10.7870    4.3374 C.ar     1 ZINC000010172413   -0.0700
18     C18     0.5187  -11.6885    5.3016 C.ar     1 ZINC000010172413   -0.1800
19     C19    -0.7920  -11.6762    5.7565 C.ar     1 ZINC000010172413    0.1500
20     O20    -1.1902  -12.5644    6.7056 O.3      1 ZINC000010172413   -0.2500
21     C21    -0.2465  -13.3659    7.2652 C.ar     1 ZINC000010172413    0.0700
22     C22     0.6191  -12.8565    8.2227 C.ar     1 ZINC000010172413   -0.1300
23     C23     1.5773  -13.6736    8.7904 C.ar     1 ZINC000010172413   -0.1000
24     C24     1.6747  -14.9979    8.4051 C.ar     1 ZINC000010172413   -0.1100
25     C25     0.8137  -15.5080    7.4509 C.ar     1 ZINC000010172413   -0.1000
26     C26    -0.1504  -14.6968    6.8845 C.ar     1 ZINC000010172413   -0.1200
27     C27    -1.6964  -10.7574    5.2436 C.ar     1 ZINC000010172413   -0.1300
28     C28    -1.2914   -9.8518    4.2832 C.ar     1 ZINC000010172413   -0.0400
29     N29    -0.4326   -7.0161    0.5848 N.ar     1 ZINC000010172413   -0.3300
30     C30    -1.7478   -6.9423    0.6462 C.ar     1 ZINC000010172413    0.1400
31     C31    -2.5237   -7.2143   -0.4646 C.ar     1 ZINC000010172413   -0.1100
32     C32    -1.9025   -7.5680   -1.6526 C.ar     1 ZINC000010172413    0.0100
33     C33    -0.5178   -7.6351   -1.6786 C.ar     1 ZINC000010172413   -0.1100
34     C34     0.1922   -7.3444   -0.5291 C.ar     1 ZINC000010172413    0.1100
35     C35     0.9066   -3.3174    3.4722 C.2      1 ZINC000010172413    0.0400
36     C36    -0.2774   -2.4044    3.2836 C.3      1 ZINC000010172413   -0.1100
37     H37     3.9689    0.2320    5.7517 H        1 ZINC000010172413    0.0700
38     H38     3.8145    1.1732    4.2488 H        1 ZINC000010172413    0.1100
39     H39     2.3859    0.8897    5.2721 H        1 ZINC000010172413    0.0700
40     H40     4.1931   -4.6636    5.7117 H        1 ZINC000010172413    0.1000
41     H41     4.8807   -4.9523    4.0955 H        1 ZINC000010172413    0.0800
42     H42     4.7620   -3.2931    4.7287 H        1 ZINC000010172413    0.1000
43     H43     2.6176   -5.9666    3.1891 H        1 ZINC000010172413    0.4200
44     H44     1.4162   -6.8234    1.5563 H        1 ZINC000010172413    0.1600
45     H45     1.0359   -9.2333    2.1431 H        1 ZINC000010172413    0.4100
46     H46     1.9438  -10.7972    3.9829 H        1 ZINC000010172413    0.1300
47     H47     1.2223  -12.4037    5.7015 H        1 ZINC000010172413    0.1400
48     H48     0.5440  -11.8219    8.5235 H        1 ZINC000010172413    0.1300
49     H49     2.2513  -13.2775    9.5356 H        1 ZINC000010172413    0.1300
50     H50     2.4248  -15.6350    8.8499 H        1 ZINC000010172413    0.1300
51     H51     0.8921  -16.5427    7.1515 H        1 ZINC000010172413    0.1400
52     H52    -0.8226  -15.0957    6.1393 H        1 ZINC000010172413    0.1300
53     H53    -2.7165  -10.7482    5.5981 H        1 ZINC000010172413    0.1500
54     H54    -1.9954   -9.1367    3.8840 H        1 ZINC000010172413    0.1400
55     H55    -2.2241   -6.6664    1.5755 H        1 ZINC000010172413    0.2100
56     H56    -3.6005   -7.1525   -0.4079 H        1 ZINC000010172413    0.1900
57     H57    -2.4833   -7.7864   -2.5365 H        1 ZINC000010172413    0.1800
58     H58    -0.0006   -7.9077   -2.5867 H        1 ZINC000010172413    0.1900
59     H59     1.2710   -7.3943   -0.5411 H        1 ZINC000010172413    0.2100
60     H60    -0.9818   -2.5490    4.1028 H        1 ZINC000010172413    0.0900
61     H61     0.0608   -1.3682    3.2737 H        1 ZINC000010172413    0.0800
62     H62    -0.7675   -2.6357    2.3379 H        1 ZINC000010172413    0.0900
@<TRIPOS>BOND
1     1     2     1
2     1     37    1
3     1     38    1
4     1     39    1
5     2     3     1
6     3     4     2
7     3     5     1
8     5     35    1
9     5     6     2
10    6     7     1
11    6     8     1
12    7     40    1
13    7     41    1
14    7     42    1
15    8     9     1
16    8     43    1
17    9     10    1
18    9     35    2
19    10    11    2
20    10    12    1
21    12    13    1
22    12    29    1
23    12    44    1
24    13    14    2
25    13    15    am
26    15    16    1
27    15    45    1
28    16    28    ar
29    16    17    ar
30    17    18    ar
31    17    46    1
32    18    19    ar
33    18    47    1
34    19    20    1
35    19    27    ar
36    20    21    1
37    21    26    ar
38    21    22    ar
39    22    23    ar
40    22    48    1
41    23    24    ar
42    23    49    1
43    24    25    ar
44    24    50    1
45    25    26    ar
46    25    51    1
47    26    52    1
48    27    28    ar
49    27    53    1
50    28    54    1
51    29    34    ar
52    29    30    ar
53    30    31    ar
54    30    55    1
55    31    32    ar
56    31    56    1
57    32    33    ar
58    32    57    1
59    33    34    ar
60    33    58    1
61    34    59    1
62    35    36    1
63    36    60    1
64    36    61    1
65    36    62    1
@<TRIPOS>SUBSTRUCTURE
1   ZINC000010172413 1     RESIDUE    1   A     ZIN   1
