@<TRIPOS>MOLECULE
ZINC000010174184
60    63    1     0     0
SMALL
USER_CHARGES
@<TRIPOS>ATOM
1      C1      1.4102   -0.3384    1.0052 C.3      1 ZINC000010174184    0.0600
2      N2      1.1532   -1.7326    0.6360 N.pl3    1 ZINC000010174184   -0.5700
3      C3      1.1402   -2.7730    1.6673 C.3      1 ZINC000010174184    0.0600
4      C4      0.9215   -2.0688   -0.6945 C.ar     1 ZINC000010174184    0.3200
5      C5      0.6692   -3.3894   -1.0653 C.ar     1 ZINC000010174184   -0.2000
6      C6      0.4440   -3.6808   -2.3942 C.ar     1 ZINC000010174184    0.1600
7      N7      0.4652   -2.7291   -3.3087 N.ar     1 ZINC000010174184   -0.3800
8      C8      0.2203   -3.0828   -4.7091 C.3      1 ZINC000010174184    0.0700
9      C9     -0.9901   -2.3384   -5.2109 C.2      1 ZINC000010174184    0.3900
10     O10    -0.8541   -1.2882   -5.8016 O.2      1 ZINC000010174184   -0.3900
11     C11    -2.3371   -2.8860   -4.9841 C.ar     1 ZINC000010174184   -0.1900
12     C12    -2.4995   -4.0938   -4.2984 C.ar     1 ZINC000010174184   -0.0800
13     C13    -3.7648   -4.5979   -4.0913 C.ar     1 ZINC000010174184   -0.1100
14     C14    -4.8781   -3.9155   -4.5583 C.ar     1 ZINC000010174184   -0.0400
15     C15    -6.3492   -4.2604   -4.4572 C.3      1 ZINC000010174184   -0.1000
16     C16    -7.0949   -2.9427   -4.7562 C.3      1 ZINC000010174184   -0.1200
17     C17    -6.0828   -2.1812   -5.6381 C.3      1 ZINC000010174184   -0.0900
18     C18    -4.7252   -2.7189   -5.2380 C.ar     1 ZINC000010174184   -0.1000
19     C19    -3.4627   -2.1994   -5.4475 C.ar     1 ZINC000010174184   -0.0300
20     C20     1.4207   -2.7076   -5.5393 C.2      1 ZINC000010174184    0.2300
21     S21     2.6931   -2.0321   -4.8454 S.2      1 ZINC000010174184   -0.3600
22     N22     1.4218   -2.9415   -6.8666 N.am     1 ZINC000010174184   -0.5600
23     C23     2.4986   -2.5123   -7.6523 C.ar     1 ZINC000010174184    0.0700
24     C24     3.8015   -2.7381   -7.2281 C.ar     1 ZINC000010174184   -0.0300
25     C25     4.8628   -2.3146   -8.0034 C.ar     1 ZINC000010174184   -0.1100
26     C26     4.6277   -1.6637   -9.2057 C.ar     1 ZINC000010174184    0.1300
27     O27     5.6732   -1.2473   -9.9688 O.3      1 ZINC000010174184   -0.3100
28     C28     5.3581   -0.5839  -11.1945 C.3      1 ZINC000010174184    0.6000
29     F29     4.6093    0.5663  -10.9232 F        1 ZINC000010174184   -0.1600
30     F30     6.5418   -0.2261  -11.8488 F        1 ZINC000010174184   -0.1200
31     F31     4.6147   -1.4423  -12.0117 F        1 ZINC000010174184   -0.1600
32     C32     3.3264   -1.4377   -9.6301 C.ar     1 ZINC000010174184   -0.1800
33     C33     2.2641   -1.8658   -8.8587 C.ar     1 ZINC000010174184   -0.0600
34     C34     0.7003   -1.4680   -2.9979 C.ar     1 ZINC000010174184    0.2000
35     C35     0.9297   -1.0929   -1.6909 C.ar     1 ZINC000010174184   -0.2100
36     H36     2.4814   -0.1418    0.9590 H        1 ZINC000010174184    0.0800
37     H37     0.8893    0.3228    0.3127 H        1 ZINC000010174184    0.0900
38     H38     1.0512   -0.1588    2.0186 H        1 ZINC000010174184    0.0900
39     H39     1.3398   -2.3231    2.6398 H        1 ZINC000010174184    0.1000
40     H40     0.1631   -3.2558    1.6840 H        1 ZINC000010174184    0.0800
41     H41     1.9080   -3.5143    1.4454 H        1 ZINC000010174184    0.0800
42     H42     0.6508   -4.1729   -0.3222 H        1 ZINC000010174184    0.1800
43     H43     0.2482   -4.7007   -2.6906 H        1 ZINC000010174184    0.2000
44     H44     0.0453   -4.1558   -4.7876 H        1 ZINC000010174184    0.1800
45     H45    -1.6360   -4.6297   -3.9328 H        1 ZINC000010174184    0.1200
46     H46    -3.8905   -5.5309   -3.5621 H        1 ZINC000010174184    0.1400
47     H47    -6.6113   -5.0189   -5.1948 H        1 ZINC000010174184    0.0900
48     H48    -6.5875   -4.6102   -3.4528 H        1 ZINC000010174184    0.0900
49     H49    -8.0176   -3.1354   -5.3035 H        1 ZINC000010174184    0.0900
50     H50    -7.2963   -2.3943   -3.8360 H        1 ZINC000010174184    0.0800
51     H51    -6.2736   -2.3822   -6.6923 H        1 ZINC000010174184    0.0900
52     H52    -6.1390   -1.1108   -5.4402 H        1 ZINC000010174184    0.0800
53     H53    -3.3450   -1.2632   -5.9730 H        1 ZINC000010174184    0.1400
54     H54     0.6767   -3.4071   -7.2777 H        1 ZINC000010174184    0.4200
55     H55     3.9847   -3.2446   -6.2920 H        1 ZINC000010174184    0.1500
56     H56     5.8761   -2.4898   -7.6735 H        1 ZINC000010174184    0.1500
57     H57     3.1442   -0.9309  -10.5662 H        1 ZINC000010174184    0.1500
58     H58     1.2511   -1.6901   -9.1893 H        1 ZINC000010174184    0.1400
59     H59     0.7088   -0.7197   -3.7766 H        1 ZINC000010174184    0.1900
60     H60     1.1211   -0.0592   -1.4435 H        1 ZINC000010174184    0.1800
@<TRIPOS>BOND
1     1     2     1
2     1     36    1
3     1     37    1
4     1     38    1
5     2     3     1
6     2     4     1
7     3     39    1
8     3     40    1
9     3     41    1
10    4     35    ar
11    4     5     ar
12    5     6     ar
13    5     42    1
14    6     7     ar
15    6     43    1
16    7     8     1
17    7     34    ar
18    8     9     1
19    8     20    1
20    8     44    1
21    9     10    2
22    9     11    1
23    11    19    ar
24    11    12    ar
25    12    13    ar
26    12    45    1
27    13    14    ar
28    13    46    1
29    14    18    ar
30    14    15    1
31    15    16    1
32    15    47    1
33    15    48    1
34    16    17    1
35    16    49    1
36    16    50    1
37    17    18    1
38    17    51    1
39    17    52    1
40    18    19    ar
41    19    53    1
42    20    21    2
43    20    22    am
44    22    23    1
45    22    54    1
46    23    33    ar
47    23    24    ar
48    24    25    ar
49    24    55    1
50    25    26    ar
51    25    56    1
52    26    27    1
53    26    32    ar
54    27    28    1
55    28    29    1
56    28    30    1
57    28    31    1
58    32    33    ar
59    32    57    1
60    33    58    1
61    34    35    ar
62    34    59    1
63    35    60    1
@<TRIPOS>SUBSTRUCTURE
1   ZINC000010174184 1     RESIDUE    1   A     ZIN   1
