REMARK  Name = 
REMARK  16 active torsions:
REMARK  status: ('A' for Active; 'I' for Inactive)
REMARK    1  A    between atoms: C_1  and  N_2
REMARK    2  A    between atoms: C_1  and  C_8
REMARK    3  A    between atoms: N_2  and  C_3
REMARK    4  A    between atoms: N_2  and  C_5
REMARK    5  A    between atoms: C_3  and  O_4
REMARK    6  A    between atoms: C_5  and  C_6
REMARK    7  A    between atoms: C_5  and  C_7
REMARK    8  A    between atoms: C_8  and  C_9
REMARK    9  A    between atoms: C_8  and  C_14
REMARK   10  A    between atoms: C_9  and  O_10
REMARK   11  A    between atoms: O_10  and  C_11
REMARK   12  A    between atoms: C_11  and  C_12
REMARK   13  A    between atoms: C_11  and  C_13
REMARK   14  A    between atoms: C_14  and  C_15
REMARK   15  A    between atoms: C_15  and  C_16
REMARK   16  A    between atoms: C_15  and  C_17
REMARK                            x       y       z     vdW  Elec       q    Type
REMARK                         _______ _______ _______ _____ _____    ______ ____
ROOT
ATOM      1  C   UNL     1       2.463  -0.198  -0.139  0.00  0.00    +0.029 C 
ENDROOT
BRANCH   1   2
ATOM      2  C   UNL     1       0.937   0.036  -0.340  0.00  0.00    +0.092 C 
BRANCH   2   3
ATOM      3  N   UNL     1       0.123   0.245   0.877  0.00  0.00    -0.278 NA
BRANCH   3   4
ATOM      4  C   UNL     1      -1.346   0.234   0.619  0.00  0.00    +0.053 C 
ATOM      5  C   UNL     1      -2.191   0.446   1.893  0.00  0.00    +0.024 C 
ATOM      6  C   UNL     1      -1.827  -1.086  -0.012  0.00  0.00    +0.024 C 
ENDBRANCH   3   4
BRANCH   3   7
ATOM      7  C   UNL     1       0.565   1.397   1.661  0.00  0.00    +0.243 C 
BRANCH   7   8
ATOM      8  O   UNL     1       0.333   2.629   1.007  0.00  0.00    -0.380 OA
ATOM      9  H   UNL     1       0.049   2.413   0.113  0.00  0.00    +0.211 HD
ENDBRANCH   7   8
ENDBRANCH   3   7
ENDBRANCH   2   3
ENDBRANCH   1   2
BRANCH   1  10
ATOM     10  C   UNL     1       3.186  -0.419  -1.496  0.00  0.00    +0.010 C 
BRANCH  10  11
ATOM     11  C   UNL     1       3.065   0.696  -2.557  0.00  0.00    -0.017 C 
ATOM     12  C   UNL     1       3.829   0.274  -3.816  0.00  0.00    +0.007 C 
ATOM     13  C   UNL     1       3.584   2.045  -2.059  0.00  0.00    +0.007 C 
ENDBRANCH  10  11
ENDBRANCH   1  10
BRANCH   1  14
ATOM     14  C   UNL     1       2.675  -1.435   0.764  0.00  0.00    +0.165 C 
BRANCH  14  15
ATOM     15  O   UNL     1       4.062  -1.771   0.881  0.00  0.00    -0.377 OA
BRANCH  15  16
ATOM     16  C   UNL     1       4.305  -2.911   1.719  0.00  0.00    +0.112 C 
ATOM     17  C   UNL     1       5.815  -3.063   1.883  0.00  0.00    +0.037 C 
ATOM     18  C   UNL     1       3.729  -4.193   1.119  0.00  0.00    +0.037 C 
ENDBRANCH  15  16
ENDBRANCH  14  15
ENDBRANCH   1  14
TORSDOF 10
