REMARK  5 active torsions:
REMARK  status: ('A' for Active; 'I' for Inactive)
REMARK    1  A    between atoms: C2_2  and  C3_3 
REMARK    2  A    between atoms: C3_3  and  C5_5 
REMARK    3  A    between atoms: C10_10  and  N1_11 
REMARK    4  A    between atoms: N1_11  and  C11_12 
REMARK    5  A    between atoms: C11_12  and  C12_13 
ROOT
HETATM    1  C5  UNL     1      -1.949  -0.777  -0.134  1.00  0.00    -0.033 A 
HETATM    2  C6  UNL     1      -3.051  -1.603  -0.448  1.00  0.00     0.009 A 
HETATM    3  C7  UNL     1      -3.056  -2.403  -1.587  1.00  0.00     0.001 A 
HETATM    4  C8  UNL     1      -1.962  -2.390  -2.437  1.00  0.00     0.002 A 
HETATM    5  C9  UNL     1      -0.851  -1.601  -2.128  1.00  0.00     0.024 A 
HETATM    6  C10 UNL     1      -0.793  -0.826  -0.956  1.00  0.00     0.015 A 
ENDROOT
BRANCH   6   7
HETATM    7  N1  UNL     1       0.318  -0.024  -0.659  1.00  0.00    -0.288 NA
HETATM    8  H14 UNL     1       0.446   0.085   0.343  1.00  0.00     0.128 HD
BRANCH   7   9
HETATM    9  C11 UNL     1       1.593  -0.247  -1.327  1.00  0.00     0.131 C 
BRANCH   9  10
HETATM   10  C12 UNL     1       2.659   0.589  -0.647  1.00  0.00    -0.039 A 
HETATM   11  C13 UNL     1       2.827   1.924  -1.057  1.00  0.00     0.009 A 
HETATM   12  C14 UNL     1       3.782   2.745  -0.458  1.00  0.00     0.001 A 
HETATM   13  C15 UNL     1       4.578   2.245   0.567  1.00  0.00     0.001 A 
HETATM   14  C16 UNL     1       4.413   0.929   0.999  1.00  0.00     0.007 A 
HETATM   15  C17 UNL     1       3.451   0.092   0.412  1.00  0.00    -0.054 A 
HETATM   16  C18 UNL     1       3.305  -1.317   0.918  1.00  0.00     0.049 C 
ENDBRANCH   9  10
ENDBRANCH   7   9
ENDBRANCH   6   7
BRANCH   1  17
HETATM   17  C3  UNL     1      -2.030   0.125   1.101  1.00  0.00     0.016 C 
HETATM   18  C4  UNL     1      -1.794  -0.712   2.363  1.00  0.00     0.015 C 
BRANCH  17  19
HETATM   19  C2  UNL     1      -3.343   0.930   1.229  1.00  0.00     0.004 C 
HETATM   20  C1  UNL     1      -3.563   1.898   0.072  1.00  0.00     0.006 C 
ENDBRANCH  17  19
ENDBRANCH   1  17
TORSDOF 5
