REMARK  Name = 
REMARK  1 active torsions:
REMARK  status: ('A' for Active; 'I' for Inactive)
REMARK    1  A    between atoms: C_1  and  C_2
REMARK                            x       y       z     vdW  Elec       q    Type
REMARK                         _______ _______ _______ _____ _____    ______ ____
ROOT
ATOM      1  C   UNL     1       0.987   0.024  -0.055  0.00  0.00    +0.051 C 
ATOM      2  C   UNL     1       2.477  -0.006  -0.051  0.00  0.00    -0.013 A 
ATOM      3  S   UNL     1       3.299  -1.508  -0.047  0.00  0.00    -0.102 S 
ATOM      4  C   UNL     1       4.828  -0.742  -0.042  0.00  0.00    +0.045 A 
ATOM      5  C   UNL     1       4.718   0.630  -0.044  0.00  0.00    +0.008 A 
ATOM      6  C   UNL     1       3.358   1.056  -0.049  0.00  0.00    +0.011 A 
ENDROOT
TORSDOF 0
