MODEL 1
REMARK VINA RESULT:      -5.0      0.000      0.000
REMARK  Name = 
REMARK  16 active torsions:
REMARK  status: ('A' for Active; 'I' for Inactive)
REMARK    1  A    between atoms: C_1  and  N_2
REMARK    2  A    between atoms: C_1  and  C_8
REMARK    3  A    between atoms: N_2  and  C_3
REMARK    4  A    between atoms: N_2  and  C_5
REMARK    5  A    between atoms: C_3  and  O_4
REMARK    6  A    between atoms: C_5  and  C_6
REMARK    7  A    between atoms: C_5  and  C_7
REMARK    8  A    between atoms: C_8  and  C_9
REMARK    9  A    between atoms: C_8  and  C_14
REMARK   10  A    between atoms: C_9  and  O_10
REMARK   11  A    between atoms: O_10  and  C_11
REMARK   12  A    between atoms: C_11  and  C_12
REMARK   13  A    between atoms: C_11  and  C_13
REMARK   14  A    between atoms: C_14  and  C_15
REMARK   15  A    between atoms: C_15  and  C_16
REMARK   16  A    between atoms: C_15  and  C_17
REMARK                            x       y       z     vdW  Elec       q    Type
REMARK                         _______ _______ _______ _____ _____    ______ ____
ROOT
ATOM      1  C   UNL     1     -11.217  14.420  67.340  0.00  0.00    +0.029 C 
ENDROOT
BRANCH   1   2
ATOM      2  C   UNL     1     -12.338  14.074  66.317  0.00  0.00    +0.092 C 
BRANCH   2   3
ATOM      3  N   UNL     1     -12.117  14.484  64.913  0.00  0.00    -0.278 NA
BRANCH   3   4
ATOM      4  C   UNL     1     -11.861  13.338  63.993  0.00  0.00    +0.053 C 
ATOM      5  C   UNL     1     -12.786  12.130  64.250  0.00  0.00    +0.024 C 
ATOM      6  C   UNL     1     -10.416  12.813  64.088  0.00  0.00    +0.024 C 
ENDBRANCH   3   4
BRANCH   3   7
ATOM      7  C   UNL     1     -11.135  15.559  64.786  0.00  0.00    +0.243 C 
BRANCH   7   8
ATOM      8  O   UNL     1     -11.486  16.512  63.803  0.00  0.00    -0.380 OA
ATOM      9  H   UNL     1     -11.717  16.014  63.012  0.00  0.00    +0.211 HD
ENDBRANCH   7   8
ENDBRANCH   3   7
ENDBRANCH   2   3
ENDBRANCH   1   2
BRANCH   1  10
ATOM     10  C   UNL     1     -10.677  13.144  68.041  0.00  0.00    +0.010 C 
BRANCH  10  11
ATOM     11  C   UNL     1     -11.513  11.852  67.912  0.00  0.00    -0.017 C 
ATOM     12  C   UNL     1     -11.901  11.365  69.312  0.00  0.00    +0.007 C 
ATOM     13  C   UNL     1     -10.777  10.744  67.159  0.00  0.00    +0.007 C 
ENDBRANCH  10  11
ENDBRANCH   1  10
BRANCH   1  14
ATOM     14  C   UNL     1     -11.778  15.393  68.402  0.00  0.00    +0.165 C 
BRANCH  14  15
ATOM     15  O   UNL     1     -11.647  14.861  69.725  0.00  0.00    -0.377 OA
BRANCH  15  16
ATOM     16  C   UNL     1     -12.600  15.399  70.654  0.00  0.00    +0.112 C 
ATOM     17  C   UNL     1     -11.829  16.026  71.812  0.00  0.00    +0.037 C 
ATOM     18  C   UNL     1     -13.539  14.322  71.196  0.00  0.00    +0.037 C 
ENDBRANCH  15  16
ENDBRANCH  14  15
ENDBRANCH   1  14
TORSDOF 10
ENDMDL
