<<<<<<< HEAD
MODEL 1
REMARK VINA RESULT:      -3.2      0.000      0.000
REMARK  Name = 
REMARK  1 active torsions:
REMARK  status: ('A' for Active; 'I' for Inactive)
REMARK    1  A    between atoms: C_1  and  C_2
REMARK                            x       y       z     vdW  Elec       q    Type
REMARK                         _______ _______ _______ _____ _____    ______ ____
ROOT
ATOM      1  C   UNL     1     -12.450  15.622  74.500  0.00  0.00    +0.051 C 
ATOM      2  C   UNL     1     -12.532  15.379  73.032  0.00  0.00    -0.013 A 
ATOM      3  S   UNL     1     -13.465  14.073  72.435  0.00  0.00    -0.102 S 
ATOM      4  C   UNL     1     -13.073  14.452  70.815  0.00  0.00    +0.045 A 
ATOM      5  C   UNL     1     -12.249  15.551  70.726  0.00  0.00    +0.008 A 
ATOM      6  C   UNL     1     -11.936  16.087  72.009  0.00  0.00    +0.011 A 
ENDROOT
TORSDOF 0
ENDMDL
=======
MODEL 1
REMARK VINA RESULT:      -3.2      0.000      0.000
REMARK  Name = 
REMARK  1 active torsions:
REMARK  status: ('A' for Active; 'I' for Inactive)
REMARK    1  A    between atoms: C_1  and  C_2
REMARK                            x       y       z     vdW  Elec       q    Type
REMARK                         _______ _______ _______ _____ _____    ______ ____
ROOT
ATOM      1  C   UNL     1     -12.450  15.622  74.500  0.00  0.00    +0.051 C 
ATOM      2  C   UNL     1     -12.532  15.379  73.032  0.00  0.00    -0.013 A 
ATOM      3  S   UNL     1     -13.465  14.073  72.435  0.00  0.00    -0.102 S 
ATOM      4  C   UNL     1     -13.073  14.452  70.815  0.00  0.00    +0.045 A 
ATOM      5  C   UNL     1     -12.249  15.551  70.726  0.00  0.00    +0.008 A 
ATOM      6  C   UNL     1     -11.936  16.087  72.009  0.00  0.00    +0.011 A 
ENDROOT
TORSDOF 0
ENDMDL
>>>>>>> b324c4f97ef023ee8e3986e10bbafe94fb68fd6c
