REMARK  Name = 
REMARK  17 active torsions:
REMARK  status: ('A' for Active; 'I' for Inactive)
REMARK    1  A    between atoms: C_1  and  C_2
REMARK    2  A    between atoms: C_1  and  C_17
REMARK    3  A    between atoms: C_2  and  C_3
REMARK    4  A    between atoms: C_2  and  C_11
REMARK    5  A    between atoms: C_3  and  C_4
REMARK    6  A    between atoms: C_3  and  C_10
REMARK    7  A    between atoms: C_4  and  C_5
REMARK    8  A    between atoms: C_4  and  C_9
REMARK    9  A    between atoms: C_5  and  C_6
REMARK   10  A    between atoms: C_6  and  C_7
REMARK   11  A    between atoms: C_6  and  C_8
REMARK   12  A    between atoms: C_11  and  C_12
REMARK   13  A    between atoms: C_12  and  C_13
REMARK   14  A    between atoms: C_12  and  C_14
REMARK   15  A    between atoms: C_14  and  C_15
REMARK   16  A    between atoms: C_14  and  C_16
REMARK   17  A    between atoms: C_17  and  C_19
REMARK                            x       y       z     vdW  Elec       q    Type
REMARK                         _______ _______ _______ _____ _____    ______ ____
ROOT
ATOM      1  C   UNL     1       0.409   1.425   0.532  0.00  0.00    -0.005 C 
ENDROOT
BRANCH   1   2
ATOM      2  C   UNL     1       1.105   2.710  -0.079  0.00  0.00    -0.008 C 
ATOM      3  C   UNL     1       0.776   3.960   0.758  0.00  0.00    +0.008 C 
BRANCH   2   4
ATOM      4  C   UNL     1       1.026   2.977  -1.632  0.00  0.00    -0.011 C 
ATOM      5  C   UNL     1       2.060   4.056  -2.021  0.00  0.00    +0.008 C 
BRANCH   4   6
ATOM      6  C   UNL     1      -0.367   3.367  -2.191  0.00  0.00    +0.006 C 
BRANCH   6   7
ATOM      7  C   UNL     1      -0.423   3.735  -3.699  0.00  0.00    -0.017 C 
ATOM      8  C   UNL     1      -1.847   4.127  -4.105  0.00  0.00    +0.007 C 
ATOM      9  C   UNL     1       0.062   2.601  -4.606  0.00  0.00    +0.007 C 
ENDBRANCH   6   7
ENDBRANCH   4   6
ENDBRANCH   2   4
ENDBRANCH   1   2
BRANCH   1  10
ATOM     10  C   UNL     1       0.811   0.106  -0.174  0.00  0.00    +0.040 C 
BRANCH  10  11
ATOM     11  C   UNL     1       2.302  -0.226  -0.112  0.00  0.00    +0.163 C 
ATOM     12  C   UNL     1       2.589  -1.606  -0.685  0.00  0.00    +0.043 C 
ATOM     13  F   UNL     1       2.697  -0.231   1.192  0.00  0.00    -0.246 F 
ENDBRANCH  10  11
ENDBRANCH   1  10
BRANCH   1  14
ATOM     14  C   UNL     1      -1.137   1.527   0.655  0.00  0.00    +0.007 C 
BRANCH  14  15
ATOM     15  C   UNL     1      -1.880   0.427   1.479  0.00  0.00    -0.011 C 
ATOM     16  C   UNL     1      -1.450   0.447   2.953  0.00  0.00    +0.008 C 
BRANCH  15  17
ATOM     17  C   UNL     1      -3.430   0.587   1.330  0.00  0.00    -0.014 C 
ATOM     18  C   UNL     1      -4.230  -0.346   2.249  0.00  0.00    +0.007 C 
ATOM     19  C   UNL     1      -3.884   0.340  -0.117  0.00  0.00    +0.007 C 
ENDBRANCH  15  17
ENDBRANCH  14  15
ENDBRANCH   1  14
TORSDOF 9
