REMARK  2 active torsions:
REMARK  status: ('A' for Active; 'I' for Inactive)
REMARK    1  A    between atoms: C1_1  and  N1_3 
REMARK    2  A    between atoms: N1_3  and  C3_4 
ROOT
HETATM    1  C3  UNL     1      -0.409  -0.228  -0.073  1.00  0.00     0.047 A 
HETATM    2  C4  UNL     1      -1.344  -1.262  -0.252  1.00  0.00     0.026 A 
HETATM    3  C5  UNL     1      -2.556  -1.050  -0.918  1.00  0.00     0.002 A 
HETATM    4  C6  UNL     1      -2.875   0.215  -1.403  1.00  0.00     0.003 A 
HETATM    5  C7  UNL     1      -1.983   1.266  -1.210  1.00  0.00     0.044 A 
HETATM    6  C8  UNL     1      -0.776   1.046  -0.543  1.00  0.00     0.137 A 
HETATM    7  F1  UNL     1       0.036   2.103  -0.383  1.00  0.00    -0.204 F 
ENDROOT
BRANCH   1   8
HETATM    8  N1  UNL     1       0.747  -0.522   0.668  1.00  0.00    -0.291 NA
HETATM    9  H6  UNL     1       1.053  -1.479   0.514  1.00  0.00     0.127 HD
BRANCH   8  10
HETATM   10  C1  UNL     1       1.844   0.438   0.696  1.00  0.00     0.088 C 
HETATM   11  C2  UNL     1       3.020  -0.158   1.456  1.00  0.00     0.021 C 
ENDBRANCH   8  10
ENDBRANCH   1   8
TORSDOF 2
