REMARK  Name = 
REMARK  5 active torsions:
REMARK  status: ('A' for Active; 'I' for Inactive)
REMARK    1  A    between atoms: C_1  and  N_2
REMARK    2  A    between atoms: C_3  and  C_5
REMARK    3  A    between atoms: C_10  and  C_11
REMARK    4  A    between atoms: N_13  and  C_14
REMARK    5  A    between atoms: C_14  and  C_15
REMARK                            x       y       z     vdW  Elec       q    Type
REMARK                         _______ _______ _______ _____ _____    ______ ____
ROOT
ATOM      1  C   UNL     1       4.565  -1.937  -1.257  0.00  0.00    +0.245 C 
ATOM      2  N   UNL     1       3.425  -2.134  -0.526  0.00  0.00    -0.307 N 
ATOM      3  H   UNL     1       2.958  -1.338  -0.093  0.00  0.00    +0.149 HD
ATOM      4  O   UNL     1       5.106  -2.851  -1.879  0.00  0.00    -0.270 OA
ENDROOT
BRANCH   1   6
ATOM      5  C   UNL     1       4.611   0.679  -1.161  0.00  0.00    +0.049 A 
ATOM      6  C   UNL     1       5.222  -0.588  -1.248  0.00  0.00    +0.049 A 
ATOM      7  C   UNL     1       6.627  -0.637  -1.407  0.00  0.00    +0.014 A 
ATOM      8  C   UNL     1       7.408   0.519  -1.475  0.00  0.00    +0.001 A 
ATOM      9  C   UNL     1       6.800   1.763  -1.369  0.00  0.00    +0.001 A 
ATOM     10  C   UNL     1       5.419   1.840  -1.204  0.00  0.00    +0.014 A 
BRANCH   5  14
ATOM     11  C   UNL     1       1.219   2.318  -1.594  0.00  0.00    +0.128 C 
ATOM     12  N   UNL     1       2.622   1.994  -1.679  0.00  0.00    -0.314 N 
ATOM     13  H   UNL     1       3.184   2.494  -2.356  0.00  0.00    +0.149 HD
ATOM     14  C   UNL     1       3.146   0.908  -1.005  0.00  0.00    +0.245 C 
ATOM     15  O   UNL     1       2.468   0.192  -0.280  0.00  0.00    -0.270 OA
ENDBRANCH   5  14
ENDBRANCH   1   6
BRANCH   2  16
ATOM     16  C   UNL     1       2.712  -3.395  -0.487  0.00  0.00    +0.142 C 
BRANCH  16  17
ATOM     17  C   UNL     1       2.534  -3.885   0.924  0.00  0.00    +0.005 A 
ATOM     18  C   UNL     1       1.261  -4.073   1.463  0.00  0.00    +0.128 A 
ATOM     19  F   UNL     1       0.170  -3.828   0.724  0.00  0.00    -0.205 F 
ATOM     20  C   UNL     1       1.088  -4.522   2.773  0.00  0.00    +0.038 A 
ATOM     21  C   UNL     1       2.201  -4.800   3.564  0.00  0.00    +0.003 A 
ATOM     22  C   UNL     1       3.482  -4.636   3.037  0.00  0.00    +0.000 A 
ATOM     23  C   UNL     1       3.648  -4.186   1.724  0.00  0.00    +0.008 A 
ENDBRANCH  16  17
ENDBRANCH   2  16
TORSDOF 4
