REMARK  Name = 
REMARK  9 active torsions:
REMARK  status: ('A' for Active; 'I' for Inactive)
REMARK    1  A    between atoms: C_1  and  N_2
REMARK    2  A    between atoms: C_1  and  C_10
REMARK    3  A    between atoms: N_2  and  C_3
REMARK    4  A    between atoms: N_2  and  C_7
REMARK    5  A    between atoms: C_3  and  N_4
REMARK    6  A    between atoms: N_4  and  C_5
REMARK    7  A    between atoms: N_4  and  C_6
REMARK    8  A    between atoms: C_7  and  C_8
REMARK    9  A    between atoms: C_7  and  C_9
REMARK                            x       y       z     vdW  Elec       q    Type
REMARK                         _______ _______ _______ _____ _____    ______ ____
ROOT
ATOM      1  N   UNL     1       0.482  -0.073  -1.337  0.00  0.00    -0.287 NA
ENDROOT
BRANCH   1   2
ATOM      2  C   UNL     1      -1.005  -0.002  -1.403  0.00  0.00    +0.052 C 
ATOM      3  C   UNL     1      -1.532   1.396  -1.036  0.00  0.00    +0.024 C 
ATOM      4  C   UNL     1      -1.757  -1.066  -0.591  0.00  0.00    +0.024 C 
ENDBRANCH   1   2
BRANCH   1   5
ATOM      5  C   UNL     1       1.000   0.135   0.031  0.00  0.00    +0.082 C 
ATOM      6  C   UNL     1       2.522   0.224   0.144  0.00  0.00    +0.020 C 
ENDBRANCH   1   5
BRANCH   1   7
ATOM      7  C   UNL     1       1.022  -1.314  -1.917  0.00  0.00    +0.171 C 
BRANCH   7   8
ATOM      8  N   UNL     1       0.565  -1.550  -3.293  0.00  0.00    -0.296 NA
ATOM      9  C   UNL     1       1.024  -2.868  -3.746  0.00  0.00    +0.105 C 
ATOM     10  C   UNL     1       1.056  -0.524  -4.217  0.00  0.00    +0.105 C 
ENDBRANCH   7   8
ENDBRANCH   1   7
TORSDOF 4
