REMARK  Name = 
REMARK  5 active torsions:
REMARK  status: ('A' for Active; 'I' for Inactive)
REMARK    1  A    between atoms: C_1  and  C_2
REMARK    2  A    between atoms: C_7  and  C_8
REMARK    3  A    between atoms: C_8  and  C_9
REMARK    4  A    between atoms: C_8  and  N_10
REMARK    5  A    between atoms: C_11  and  C_13
REMARK                            x       y       z     vdW  Elec       q    Type
REMARK                         _______ _______ _______ _____ _____    ______ ____
ROOT
ATOM      1  N   UNL     1       1.042  -2.385  -0.229  0.00  0.00    -0.305 N 
ATOM      2  H   UNL     1       0.630  -1.550   0.170  0.00  0.00    +0.150 HD
ATOM      3  C   UNL     1       0.214  -3.386  -0.692  0.00  0.00    +0.247 C 
ATOM      4  O   UNL     1       0.639  -4.442  -1.150  0.00  0.00    -0.270 OA
ENDROOT
BRANCH   3   5
ATOM      5  C   UNL     1      -1.260  -3.146  -0.626  0.00  0.00    +0.072 A 
ATOM      6  C   UNL     1      -1.822  -2.008  -0.044  0.00  0.00    +0.135 A 
ATOM      7  F   UNL     1      -1.049  -1.063   0.516  0.00  0.00    -0.205 F 
ATOM      8  C   UNL     1      -3.203  -1.813  -0.019  0.00  0.00    +0.039 A 
ATOM      9  C   UNL     1      -4.052  -2.766  -0.578  0.00  0.00    +0.003 A 
ATOM     10  C   UNL     1      -3.514  -3.915  -1.154  0.00  0.00    +0.001 A 
ATOM     11  C   UNL     1      -2.126  -4.107  -1.177  0.00  0.00    +0.016 A 
ENDBRANCH   3   5
BRANCH   1  12
ATOM     12  C   UNL     1       2.496  -2.506  -0.191  0.00  0.00    +0.101 C 
ATOM     13  C   UNL     1       2.940  -3.389   0.983  0.00  0.00    +0.033 C 
BRANCH  12  16
ATOM     14  C   UNL     1       4.328  -1.389  -2.371  0.00  0.00    +0.044 C 
ATOM     15  C   UNL     1       3.989  -0.613  -1.127  0.00  0.00    -0.046 A 
ATOM     16  C   UNL     1       3.146  -1.124  -0.112  0.00  0.00    -0.025 A 
ATOM     17  C   UNL     1       2.911  -0.321   1.027  0.00  0.00    +0.006 A 
ATOM     18  C   UNL     1       3.497   0.937   1.166  0.00  0.00    +0.000 A 
ATOM     19  C   UNL     1       4.326   1.429   0.167  0.00  0.00    +0.000 A 
ATOM     20  C   UNL     1       4.567   0.663  -0.970  0.00  0.00    +0.004 A 
ENDBRANCH  12  16
ENDBRANCH   1  12
TORSDOF 3
