REMARK  3 active torsions:
REMARK  status: ('A' for Active; 'I' for Inactive)
REMARK       I    between atoms: N1_2  and  C2_3 
REMARK    1  A    between atoms: C2_3  and  C3_5 
REMARK    2  A    between atoms: C8_10  and  C9_11 
REMARK    3  A    between atoms: C9_11  and  O2_12 
ROOT
HETATM    1  C3  UNL     1      -0.344  -0.104  -0.191  1.00  0.00     0.040 A 
HETATM    2  C4  UNL     1      -0.816  -1.400   0.059  1.00  0.00     0.017 A 
HETATM    3  C5  UNL     1      -1.333  -1.725   1.312  1.00  0.00     0.001 A 
HETATM    4  C6  UNL     1      -1.397  -0.754   2.309  1.00  0.00     0.001 A 
HETATM    5  C7  UNL     1      -0.947   0.544   2.055  1.00  0.00     0.010 A 
HETATM    6  C8  UNL     1      -0.411   0.889   0.804  1.00  0.00    -0.019 A 
ENDROOT
BRANCH   1   7
HETATM    7  C2  UNL     1       0.155   0.229  -1.546  1.00  0.00     0.251 C 
HETATM    8  N1  UNL     1       1.179  -0.500  -2.092  1.00  0.00    -0.361 N 
HETATM    9  C1  UNL     1       2.027  -1.464  -1.429  1.00  0.00     0.149 C 
HETATM   10  H4  UNL     1       1.439  -0.195  -3.023  1.00  0.00     0.162 HD
HETATM   11  O1  UNL     1      -0.343   1.171  -2.158  1.00  0.00    -0.268 OA
ENDBRANCH   1   7
BRANCH   6  12
HETATM   12  C9  UNL     1       0.053   2.301   0.558  1.00  0.00     0.203 C 
BRANCH  12  13
HETATM   13  O2  UNL     1      -0.908   3.010  -0.207  1.00  0.00    -0.396 OA
HETATM   14  H11 UNL     1      -0.947   2.556  -1.077  1.00  0.00     0.209 HD
ENDBRANCH  12  13
ENDBRANCH   6  12
TORSDOF 3
