@<TRIPOS>MOLECULE
*****
 14 13 0 0 0
SMALL
GASTEIGER

@<TRIPOS>ATOM
      1 N           0.1557   -0.9694    0.4754 N.3     1  UNL1       -0.1656
      2 N          -0.1717   -1.4891   -0.8114 N.4     1  UNL1       -0.0403
      3 S           0.3101   -3.0798   -0.9609 S.3     1  UNL1        0.0253
      4 C           0.1275   -3.1115   -2.7720 C.3     1  UNL1        0.0143
      5 O           1.8984   -2.8273   -1.0236 O.3     1  UNL1       -0.3234
      6 O          -1.6133   -1.5054   -0.9575 O.3     1  UNL1       -0.2861
      7 S           0.5045    0.6473    0.3776 S.3     1  UNL1       -0.0798
      8 H           0.9455   -1.4777    0.8880 H       1  UNL1        0.1575
      9 H          -0.9350   -3.1286   -3.0279 H       1  UNL1        0.0368
     10 H           0.5942   -4.0261   -3.1472 H       1  UNL1        0.0368
     11 H           0.6086   -2.2444   -3.2332 H       1  UNL1        0.0368
     12 H           2.0702   -1.8729   -1.2198 H       1  UNL1        0.2279
     13 H          -1.8562   -1.3536   -0.0274 H       1  UNL1        0.2393
     14 H          -0.5745    1.0384   -0.3204 H       1  UNL1        0.1206
@<TRIPOS>BOND
     1     1     2    1
     2     2     3    1
     3     3     4    1
     4     3     5    1
     5     2     6    1
     6     1     7    1
     7     1     8    1
     8     4     9    1
     9     4    10    1
    10     4    11    1
    11     5    12    1
    12     6    13    1
    13     7    14    1
