@<TRIPOS>MOLECULE
*****
 16 15 0 0 0
SMALL
GASTEIGER

@<TRIPOS>ATOM
      1 N           0.9962   -0.1997   -1.1293 N.4     1  UNL1       -0.2042
      2 C           0.3792   -1.4015   -1.7013 C.3     1  UNL1        0.0224
      3 C          -1.1464   -1.3776   -1.5708 C.3     1  UNL1       -0.0259
      4 C          -1.7558   -2.6657   -2.1220 C.3     1  UNL1       -0.0057
      5 N          -3.2097   -2.6405   -2.0001 N.3     1  UNL1       -0.3299
      6 O           0.6434    0.8907   -2.0263 O.3     1  UNL1       -0.3150
      7 H           2.0104   -0.2561   -1.2570 H       1  UNL1        0.1535
      8 H           0.7738   -2.2711   -1.1632 H       1  UNL1        0.0448
      9 H           0.6740   -1.5142   -2.7518 H       1  UNL1        0.0448
     10 H          -1.5595   -0.5169   -2.1117 H       1  UNL1        0.0290
     11 H          -1.4228   -1.2584   -0.5150 H       1  UNL1        0.0290
     12 H          -1.3636   -3.5327   -1.5790 H       1  UNL1        0.0422
     13 H          -1.4902   -2.7859   -3.1778 H       1  UNL1        0.0422
     14 H          -3.4706   -2.5468   -1.0191 H       1  UNL1        0.1182
     15 H          -3.5922   -3.5313   -2.3145 H       1  UNL1        0.1182
     16 H           0.2044    1.5170   -1.4175 H       1  UNL1        0.2363
@<TRIPOS>BOND
     1     1     2    1
     2     2     3    1
     3     3     4    1
     4     4     5    1
     5     1     6    1
     6     1     7    1
     7     2     8    1
     8     2     9    1
     9     3    10    1
    10     3    11    1
    11     4    12    1
    12     4    13    1
    13     5    14    1
    14     5    15    1
    15     6    16    1
