@<TRIPOS>MOLECULE
*****
 10 9 0 0 0
SMALL
GASTEIGER

@<TRIPOS>ATOM
      1 O           0.9486   -1.1293    0.0443 O.3     1  UNL1       -0.2617
      2 C           0.1009   -0.7024    1.1105 C.3     1  UNL1        0.1661
      3 O          -0.2733   -1.8027    1.9294 O.3     1  UNL1       -0.3679
      4 N           2.2298   -1.5519    0.6036 N.4     1  UNL1       -0.1444
      5 S           3.2997   -1.8908   -0.6112 S.3     1  UNL1       -0.0710
      6 H          -0.7997   -0.2498    0.6845 H       1  UNL1        0.0888
      7 H           0.6065    0.0511    1.7247 H       1  UNL1        0.0888
      8 H          -0.9615   -2.2743    1.4315 H       1  UNL1        0.2123
      9 H           1.9596   -2.4108    1.0942 H       1  UNL1        0.1677
     10 H           3.4280   -0.6541   -1.1179 H       1  UNL1        0.1214
@<TRIPOS>BOND
     1     1     2    1
     2     2     3    1
     3     1     4    1
     4     4     5    1
     5     2     6    1
     6     2     7    1
     7     3     8    1
     8     4     9    1
     9     5    10    1
