@<TRIPOS>MOLECULE
*****
 13 12 0 0 0
SMALL
GASTEIGER

@<TRIPOS>ATOM
      1 N           1.0030   -0.1777   -0.2813 N.3     1  UNL1       -0.2344
      2 N           0.5205    1.0353   -0.8831 N.4     1  UNL1       -0.1284
      3 C           0.8494    1.0204   -2.3148 C.3     1  UNL1        0.0288
      4 O          -0.9322    1.0482   -0.8651 O.3     1  UNL1       -0.2978
      5 C           0.9067   -0.0636    1.1726 C.3     1  UNL1        0.0014
      6 H           1.9874   -0.3270   -0.5138 H       1  UNL1        0.1426
      7 H           1.9355    1.0119   -2.4616 H       1  UNL1        0.0429
      8 H           0.4699    1.9289   -2.7955 H       1  UNL1        0.0429
      9 H           0.4211    0.1528   -2.8310 H       1  UNL1        0.0429
     10 H          -1.0904    1.7856   -0.2511 H       1  UNL1        0.2382
     11 H          -0.1324    0.0432    1.5020 H       1  UNL1        0.0403
     12 H           1.4909    0.7828    1.5500 H       1  UNL1        0.0403
     13 H           1.3014   -0.9751    1.6328 H       1  UNL1        0.0403
@<TRIPOS>BOND
     1     1     2    1
     2     2     3    1
     3     2     4    1
     4     1     5    1
     5     1     6    1
     6     3     7    1
     7     3     8    1
     8     3     9    1
     9     4    10    1
    10     5    11    1
    11     5    12    1
    12     5    13    1
