@<TRIPOS>MOLECULE
*****
 20 19 0 0 0
SMALL
GASTEIGER

@<TRIPOS>ATOM
      1 N          -3.3375    1.4484   -0.6145 N.4     1  UNL1       -0.2029
      2 C          -1.8875    1.2087   -0.4937 C.3     1  UNL1        0.0363
      3 C          -1.2280    0.8374   -1.8373 C.3     1  UNL1        0.0408
      4 N           0.2256    0.6100   -1.7078 N.4     1  UNL1       -0.1679
      5 C           0.7949    0.2561   -3.0264 C.3     1  UNL1        0.1486
      6 S           2.6013   -0.1961   -2.9366 S.O     1  UNL1        0.0107
      7 O           3.2408    0.7485   -1.9574 O.2     1  UNL1       -0.1656
      8 O           2.3270   -1.5357   -2.0926 O.3     1  UNL1       -0.2681
      9 O           0.7899    1.9213   -1.3820 O.3     1  UNL1       -0.3107
     10 O          -3.9379    0.1510   -0.8855 O.3     1  UNL1       -0.3150
     11 H          -3.6998    1.6601    0.3197 H       1  UNL1        0.1536
     12 H          -1.7018    0.4232    0.2496 H       1  UNL1        0.0461
     13 H          -1.4378    2.1290   -0.1039 H       1  UNL1        0.0461
     14 H          -1.4309    1.6259   -2.5746 H       1  UNL1        0.0464
     15 H          -1.6910   -0.0842   -2.2115 H       1  UNL1        0.0464
     16 H           0.7167    1.0840   -3.7402 H       1  UNL1        0.0698
     17 H           0.2910   -0.6199   -3.4497 H       1  UNL1        0.0698
     18 H           2.4377   -1.2942   -1.1421 H       1  UNL1        0.2428
     19 H           1.7056    1.6998   -1.0983 H       1  UNL1        0.2366
     20 H          -4.5204    0.3534   -1.6441 H       1  UNL1        0.2363
@<TRIPOS>BOND
     1     1     2    1
     2     2     3    1
     3     3     4    1
     4     4     5    1
     5     5     6    1
     6     6     7    2
     7     6     8    1
     8     4     9    1
     9     1    10    1
    10     1    11    1
    11     2    12    1
    12     2    13    1
    13     3    14    1
    14     3    15    1
    15     5    16    1
    16     5    17    1
    17     8    18    1
    18     9    19    1
    19    10    20    1
