@<TRIPOS>MOLECULE
*****
 6 5 0 0 0
SMALL
GASTEIGER

@<TRIPOS>ATOM
      1 N           1.1659   -0.0039   -0.1760 N.4     1  UNL1       -0.1499
      2 O           0.8211   -0.8575   -1.2972 O.3     1  UNL1       -0.3048
      3 S           2.7975   -0.0335    0.0853 S.3     1  UNL1       -0.0713
      4 H           0.6721   -0.4593    0.5979 H       1  UNL1        0.1673
      5 H           0.4079   -0.2143   -1.9026 H       1  UNL1        0.2373
      6 H           3.2062    0.5172   -1.0689 H       1  UNL1        0.1214
@<TRIPOS>BOND
     1     1     2    1
     2     1     3    1
     3     1     4    1
     4     2     5    1
     5     3     6    1
