@<TRIPOS>MOLECULE
*****
 14 13 0 0 0
SMALL
GASTEIGER

@<TRIPOS>ATOM
      1 N           0.9977    0.2913   -0.4363 N.4     1  UNL1       -0.1008
      2 N           0.0435    0.8693   -1.3184 N.4     1  UNL1       -0.0265
      3 S           0.2003    0.2912   -2.8746 S.3     1  UNL1        0.0265
      4 C          -0.4270    1.8141   -3.6400 C.3     1  UNL1        0.0143
      5 O           1.7428    0.6838   -3.1072 O.3     1  UNL1       -0.3233
      6 O          -1.2993    0.5315   -0.9013 O.3     1  UNL1       -0.2852
      7 O           0.6215   -1.0582   -0.0394 O.3     1  UNL1       -0.2975
      8 H           0.9901    0.7925    0.4601 H       1  UNL1        0.1770
      9 H          -1.5046    1.8824   -3.4678 H       1  UNL1        0.0368
     10 H          -0.2442    1.7601   -4.7164 H       1  UNL1        0.0368
     11 H           0.0714    2.6980   -3.2320 H       1  UNL1        0.0368
     12 H           2.1258    0.8725   -2.2137 H       1  UNL1        0.2279
     13 H          -1.0935   -0.2870   -0.4157 H       1  UNL1        0.2393
     14 H           1.2832   -1.5820   -0.5332 H       1  UNL1        0.2380
@<TRIPOS>BOND
     1     1     2    1
     2     2     3    1
     3     3     4    1
     4     3     5    1
     5     2     6    1
     6     1     7    1
     7     1     8    1
     8     4     9    1
     9     4    10    1
    10     4    11    1
    11     5    12    1
    12     6    13    1
    13     7    14    1
