@<TRIPOS>MOLECULE
*****
 9 8 0 0 0
SMALL
GASTEIGER

@<TRIPOS>ATOM
      1 O           0.6628    0.2120   -0.3125 O.3     1  UNL1       -0.2420
      2 C           0.3411   -0.8768   -1.1675 C.3     1  UNL1        0.3597
      3 O           1.0543   -2.0348   -0.7784 O.2     1  UNL1       -0.4859
      4 O          -1.0367   -1.1838   -1.1533 O.2     1  UNL1       -0.4859
      5 S           0.2613    1.7201   -0.9042 S.3     1  UNL1       -0.0166
      6 H           0.6416   -0.6470   -2.1993 H       1  UNL1        0.1574
      7 H           1.5882   -2.2997   -1.5403 H       1  UNL1        0.2898
      8 H          -1.4197   -0.7182   -1.9107 H       1  UNL1        0.2898
      9 H           1.4798    2.0940   -1.3255 H       1  UNL1        0.1337
@<TRIPOS>BOND
     1     1     2    1
     2     2     3    1
     3     2     4    1
     4     1     5    1
     5     2     6    1
     6     3     7    1
     7     4     8    1
     8     5     9    1
