@<TRIPOS>MOLECULE
*****
 7 6 0 0 0
SMALL
GASTEIGER

@<TRIPOS>ATOM
      1 N           1.1278    0.1405   -0.1249 N.4     1  UNL1       -0.1411
      2 O           0.7850    0.3366   -1.5148 O.3     1  UNL1       -0.3005
      3 N           2.5263   -0.0557   -0.0120 N.3     1  UNL1       -0.2475
      4 H           0.6045   -0.7121    0.1190 H       1  UNL1        0.1732
      5 H           0.3401    1.2042   -1.4736 H       1  UNL1        0.2379
      6 H           3.0254    0.8275   -0.1361 H       1  UNL1        0.1390
      7 H           2.8656   -0.6648   -0.7604 H       1  UNL1        0.1390
@<TRIPOS>BOND
     1     1     2    1
     2     1     3    1
     3     1     4    1
     4     2     5    1
     5     3     6    1
     6     3     7    1
