@<TRIPOS>MOLECULE
*****
 19 18 0 0 0
SMALL
GASTEIGER

@<TRIPOS>ATOM
      1 N           3.0667   -2.0778   -0.5495 N.3     1  UNL1       -0.1292
      2 N           1.8858   -1.8453   -1.3230 N.4     1  UNL1       -0.1117
      3 C           0.7085   -2.1358   -0.4956 C.3     1  UNL1        0.0302
      4 O           1.7657   -0.4292   -1.6266 O.3     1  UNL1       -0.2966
      5 N           4.2295   -2.0996   -1.3743 N.4     1  UNL1       -0.0342
      6 S           5.5982   -1.9084   -0.4399 S.3     1  UNL1        0.0258
      7 C           6.6124   -1.2480   -1.7895 C.3     1  UNL1        0.0143
      8 O           5.2484   -0.4524    0.1493 O.3     1  UNL1       -0.3234
      9 O           4.3575   -3.4033   -1.9923 O.3     1  UNL1       -0.2858
     10 H           3.0219   -2.9772   -0.0584 H       1  UNL1        0.1660
     11 H           0.6971   -3.1887   -0.1955 H       1  UNL1        0.0429
     12 H          -0.2068   -1.9599   -1.0719 H       1  UNL1        0.0429
     13 H           0.6719   -1.5157    0.4080 H       1  UNL1        0.0429
     14 H           1.9989   -0.4404   -2.5713 H       1  UNL1        0.2382
     15 H           6.8543   -2.0569   -2.4841 H       1  UNL1        0.0368
     16 H           7.5424   -0.8608   -1.3643 H       1  UNL1        0.0368
     17 H           6.0950   -0.4442   -2.3209 H       1  UNL1        0.0368
     18 H           4.2646   -0.3391    0.0668 H       1  UNL1        0.2279
     19 H           4.0914   -3.1678   -2.8964 H       1  UNL1        0.2393
@<TRIPOS>BOND
     1     1     2    1
     2     2     3    1
     3     2     4    1
     4     1     5    1
     5     5     6    1
     6     6     7    1
     7     6     8    1
     8     5     9    1
     9     1    10    1
    10     3    11    1
    11     3    12    1
    12     3    13    1
    13     4    14    1
    14     7    15    1
    15     7    16    1
    16     7    17    1
    17     8    18    1
    18     9    19    1
