@<TRIPOS>MOLECULE
*****
 24 23 0 0 0
SMALL
GASTEIGER

@<TRIPOS>ATOM
      1 N           1.0791   -2.1753   -0.8754 N.4     1  UNL1       -0.1332
      2 S           0.2527   -1.9818   -2.2994 S.3     1  UNL1        0.0077
      3 C           1.6624   -2.4286   -3.3861 C.3     1  UNL1        0.0243
      4 C           2.6509   -1.2691   -3.4941 C.3     1  UNL1       -0.0414
      5 C           3.8412   -1.5751   -4.4074 C.3     1  UNL1       -0.0502
      6 C           3.4599   -1.6649   -5.8841 C.3     1  UNL1       -0.0297
      7 C           4.6856   -1.8576   -6.7674 C.3     1  UNL1        0.0442
      8 O           4.2680   -1.9275   -8.1236 O.3     1  UNL1       -0.3950
      9 O          -0.3886   -3.4514   -2.3624 O.3     1  UNL1       -0.3243
     10 O           0.0606   -2.2731    0.1558 O.3     1  UNL1       -0.3035
     11 H           1.6125   -3.0390   -0.7387 H       1  UNL1        0.1690
     12 H           1.2291   -2.6575   -4.3648 H       1  UNL1        0.0403
     13 H           2.1504   -3.3347   -3.0098 H       1  UNL1        0.0403
     14 H           3.0437   -1.0294   -2.4982 H       1  UNL1        0.0274
     15 H           2.1382   -0.3658   -3.8479 H       1  UNL1        0.0274
     16 H           4.3234   -2.5071   -4.0883 H       1  UNL1        0.0266
     17 H           4.5826   -0.7764   -4.2802 H       1  UNL1        0.0266
     18 H           2.9299   -0.7559   -6.1949 H       1  UNL1        0.0287
     19 H           2.7634   -2.4934   -6.0569 H       1  UNL1        0.0287
     20 H           5.2066   -2.7865   -6.5148 H       1  UNL1        0.0557
     21 H           5.3804   -1.0184   -6.6605 H       1  UNL1        0.0557
     22 H           5.0682   -2.0439   -8.6635 H       1  UNL1        0.2094
     23 H          -0.8754   -3.6143   -1.5178 H       1  UNL1        0.2279
     24 H           0.1910   -1.4238    0.6204 H       1  UNL1        0.2374
@<TRIPOS>BOND
     1     1     2    1
     2     2     3    1
     3     3     4    1
     4     4     5    1
     5     5     6    1
     6     6     7    1
     7     7     8    1
     8     2     9    1
     9     1    10    1
    10     1    11    1
    11     3    12    1
    12     3    13    1
    13     4    14    1
    14     4    15    1
    15     5    16    1
    16     5    17    1
    17     6    18    1
    18     6    19    1
    19     7    20    1
    20     7    21    1
    21     8    22    1
    22     9    23    1
    23    10    24    1
