@<TRIPOS>MOLECULE
*****
 14 13 0 0 0
SMALL
GASTEIGER

@<TRIPOS>ATOM
      1 N           1.0377    0.3027    0.1853 N.4     1  UNL1       -0.1879
      2 C           0.4176    1.0596   -0.9037 C.3     1  UNL1        0.0969
      3 N          -1.0058    0.7123   -0.9373 N.4     1  UNL1       -0.1779
      4 C          -1.6946    1.5098   -1.9513 C.3     1  UNL1        0.0143
      5 O          -1.1077   -0.6607   -1.4308 O.3     1  UNL1       -0.3112
      6 O           1.2956   -1.0479   -0.2914 O.3     1  UNL1       -0.3138
      7 H           0.2988    0.1741    0.8839 H       1  UNL1        0.1551
      8 H           0.9268    0.8762   -1.8581 H       1  UNL1        0.0636
      9 H           0.5270    2.1234   -0.6656 H       1  UNL1        0.0636
     10 H          -1.6575    2.5740   -1.6942 H       1  UNL1        0.0414
     11 H          -2.7523    1.2282   -1.9950 H       1  UNL1        0.0414
     12 H          -1.2629    1.3773   -2.9501 H       1  UNL1        0.0414
     13 H          -0.3719   -1.1025   -0.9543 H       1  UNL1        0.2366
     14 H           2.2373   -1.1621   -0.0494 H       1  UNL1        0.2363
@<TRIPOS>BOND
     1     1     2    1
     2     2     3    1
     3     3     4    1
     4     3     5    1
     5     1     6    1
     6     1     7    1
     7     2     8    1
     8     2     9    1
     9     4    10    1
    10     4    11    1
    11     4    12    1
    12     5    13    1
    13     6    14    1
