@<TRIPOS>MOLECULE
*****
 8 7 0 0 0
SMALL
GASTEIGER

@<TRIPOS>ATOM
      1 O           0.8677    0.9115    0.1666 O.3     1  UNL1       -0.1177
      2 S           0.4326    1.1609   -1.3690 S.O     1  UNL1        0.2609
      3 O           0.9255   -0.0039   -2.1682 O.2     1  UNL1       -0.2082
      4 N          -1.2160    1.1233   -1.1975 N.3     1  UNL1       -0.2264
      5 O           0.2488    1.8652    1.0819 O.3     1  UNL1       -0.2346
      6 H          -1.5191    1.1257   -0.2259 H       1  UNL1        0.1358
      7 H          -1.6483    0.3108   -1.6288 H       1  UNL1        0.1358
      8 H           1.0547    2.3887    1.2396 H       1  UNL1        0.2544
@<TRIPOS>BOND
     1     1     2    1
     2     2     3    2
     3     2     4    1
     4     1     5    1
     5     4     6    1
     6     4     7    1
     7     5     8    1
