@<TRIPOS>MOLECULE
*****
 28 27 0 0 0
SMALL
GASTEIGER

@<TRIPOS>ATOM
      1 N          -3.8892    2.6035   -2.3509 N.4     1  UNL1       -0.2029
      2 C          -2.8768    1.9988   -3.2323 C.3     1  UNL1        0.0362
      3 C          -2.3647    0.6698   -2.6432 C.3     1  UNL1        0.0390
      4 N          -1.3218    0.0424   -3.4828 N.4     1  UNL1       -0.1896
      5 C          -0.8600   -1.2116   -2.8547 C.3     1  UNL1        0.0257
      6 C           0.2539   -1.8721   -3.6763 C.3     1  UNL1       -0.0216
      7 C           0.7280   -3.1932   -3.0550 C.3     1  UNL1        0.0413
      8 N           1.2891   -3.0212   -1.7004 N.4     1  UNL1       -0.1276
      9 N           1.6077   -4.2970   -1.1630 N.3     1  UNL1       -0.2448
     10 O           2.5084   -2.2595   -1.8642 O.3     1  UNL1       -0.2977
     11 O          -1.9980   -0.3595   -4.7102 O.3     1  UNL1       -0.3122
     12 O          -4.3350    3.7980   -3.0522 O.3     1  UNL1       -0.3150
     13 H          -4.7289    2.0175   -2.3682 H       1  UNL1        0.1536
     14 H          -2.0358    2.6935   -3.3456 H       1  UNL1        0.0461
     15 H          -3.3110    1.8303   -4.2252 H       1  UNL1        0.0461
     16 H          -3.2086   -0.0187   -2.5009 H       1  UNL1        0.0463
     17 H          -1.9416    0.8761   -1.6514 H       1  UNL1        0.0463
     18 H          -1.6949   -1.9131   -2.7281 H       1  UNL1        0.0450
     19 H          -0.4726   -0.9773   -1.8560 H       1  UNL1        0.0450
     20 H           1.0979   -1.1799   -3.7869 H       1  UNL1        0.0292
     21 H          -0.1054   -2.0897   -4.6898 H       1  UNL1        0.0292
     22 H           1.4683   -3.6544   -3.7228 H       1  UNL1        0.0465
     23 H          -0.1309   -3.8762   -3.0094 H       1  UNL1        0.0465
     24 H           1.8452   -4.2126   -0.1738 H       1  UNL1        0.1392
     25 H           2.4493   -4.6656   -1.6109 H       1  UNL1        0.1392
     26 H           2.2972   -1.4727   -1.3286 H       1  UNL1        0.2382
     27 H          -1.4548    0.0921   -5.3841 H       1  UNL1        0.2365
     28 H          -4.1946    4.4902   -2.3766 H       1  UNL1        0.2363
@<TRIPOS>BOND
     1     1     2    1
     2     2     3    1
     3     3     4    1
     4     4     5    1
     5     5     6    1
     6     6     7    1
     7     7     8    1
     8     8     9    1
     9     8    10    1
    10     4    11    1
    11     1    12    1
    12     1    13    1
    13     2    14    1
    14     2    15    1
    15     3    16    1
    16     3    17    1
    17     5    18    1
    18     5    19    1
    19     6    20    1
    20     6    21    1
    21     7    22    1
    22     7    23    1
    23     9    24    1
    24     9    25    1
    25    10    26    1
    26    11    27    1
    27    12    28    1
