@<TRIPOS>MOLECULE
*****
 12 11 0 0 0
SMALL
GASTEIGER

@<TRIPOS>ATOM
      1 N           1.0584   -0.3367   -0.3414 N.4     1  UNL1       -0.1268
      2 O           0.8817   -1.7407   -0.0345 O.3     1  UNL1       -0.2996
      3 N           2.1321   -0.1722   -1.2680 N.3     1  UNL1       -0.1510
      4 S           2.6015    1.4282   -1.3824 S.O     1  UNL1        0.1052
      5 O           2.7417    2.0923   -0.0444 O.2     1  UNL1       -0.2399
      6 C           4.2653    1.0246   -1.9759 C.3     1  UNL1        0.0274
      7 H           1.3305    0.0629    0.5708 H       1  UNL1        0.1745
      8 H          -0.0750   -1.8481   -0.1907 H       1  UNL1        0.2379
      9 H           1.9229   -0.6519   -2.1428 H       1  UNL1        0.1589
     10 H           4.2000    0.4873   -2.9256 H       1  UNL1        0.0378
     11 H           4.7935    0.4192   -1.2347 H       1  UNL1        0.0378
     12 H           4.8108    1.9586   -2.1318 H       1  UNL1        0.0378
@<TRIPOS>BOND
     1     1     2    1
     2     1     3    1
     3     3     4    1
     4     4     5    2
     5     4     6    1
     6     1     7    1
     7     2     8    1
     8     3     9    1
     9     6    10    1
    10     6    11    1
    11     6    12    1
