@<TRIPOS>MOLECULE
*****
 7 6 0 0 0
SMALL
GASTEIGER

@<TRIPOS>ATOM
      1 O           1.0381   -0.0122   -0.0541 O.3     1  UNL1       -0.2407
      2 C           0.5991    0.9273   -1.0270 C.3     1  UNL1        0.0716
      3 O           2.4915    0.0343   -0.1022 O.3     1  UNL1       -0.2504
      4 H          -0.4937    0.9348   -1.0348 H       1  UNL1        0.0555
      5 H           0.9600    0.6373   -2.0181 H       1  UNL1        0.0555
      6 H           0.9600    1.9279   -0.7718 H       1  UNL1        0.0555
      7 H           2.6393   -0.6346    0.5904 H       1  UNL1        0.2530
@<TRIPOS>BOND
     1     1     2    1
     2     1     3    1
     3     2     4    1
     4     2     5    1
     5     2     6    1
     6     3     7    1
