@<TRIPOS>MOLECULE
*****
 18 17 0 0 0
SMALL
GASTEIGER

@<TRIPOS>ATOM
      1 N           0.5164   -0.1991   -0.8916 N.4     1  UNL1       -0.1363
      2 N          -0.1513    0.9652   -0.3835 N.3     1  UNL1       -0.2064
      3 C          -1.3854    1.2133   -1.1188 C.3     1  UNL1        0.1329
      4 S          -2.2783    2.7287   -0.5487 S.3     1  UNL1       -0.0545
      5 C          -2.2663    2.3281    1.2205 C.3     1  UNL1       -0.0004
      6 O          -0.9624    3.6664   -0.4886 O.3     1  UNL1       -0.3377
      7 N          -1.0298    1.4031   -2.5167 N.3     1  UNL1       -0.3050
      8 O           1.9021   -0.1727   -0.4781 O.3     1  UNL1       -0.3003
      9 H           0.5793   -0.1423   -1.9214 H       1  UNL1        0.1736
     10 H           0.4218    1.8020   -0.5026 H       1  UNL1        0.1453
     11 H          -2.0852    0.3775   -1.0090 H       1  UNL1        0.0772
     12 H          -2.8356    1.4095    1.3822 H       1  UNL1        0.0355
     13 H          -2.7555    3.1466    1.7553 H       1  UNL1        0.0355
     14 H          -1.2525    2.2141    1.6099 H       1  UNL1        0.0355
     15 H          -1.1990    4.5972   -0.2500 H       1  UNL1        0.2263
     16 H          -0.5090    2.2781   -2.5508 H       1  UNL1        0.1205
     17 H          -1.8930    1.5907   -3.0217 H       1  UNL1        0.1205
     18 H           1.9183   -0.9425    0.1197 H       1  UNL1        0.2379
@<TRIPOS>BOND
     1     1     2    1
     2     2     3    1
     3     3     4    1
     4     4     5    1
     5     4     6    1
     6     3     7    1
     7     1     8    1
     8     1     9    1
     9     2    10    1
    10     3    11    1
    11     5    12    1
    12     5    13    1
    13     5    14    1
    14     6    15    1
    15     7    16    1
    16     7    17    1
    17     8    18    1
