@<TRIPOS>MOLECULE
*****
 15 14 0 0 0
SMALL
GASTEIGER

@<TRIPOS>ATOM
      1 N           1.1058   -1.0864   -2.0905 N.4     1  UNL1       -0.2042
      2 C           0.4304    0.0881   -1.5287 C.3     1  UNL1        0.0220
      3 C          -1.0968    0.0203   -1.6347 C.3     1  UNL1       -0.0294
      4 C          -1.5719   -0.0747   -3.0819 C.3     1  UNL1       -0.0081
      5 S          -3.3888   -0.0436   -3.1608 S.3     1  UNL1       -0.1782
      6 O           0.7772   -2.1936   -1.2052 O.3     1  UNL1       -0.3150
      7 H           2.1138   -0.9857   -1.9364 H       1  UNL1        0.1535
      8 H           0.7877    0.9757   -2.0636 H       1  UNL1        0.0447
      9 H           0.7191    0.2171   -0.4784 H       1  UNL1        0.0447
     10 H          -1.5059    0.9257   -1.1681 H       1  UNL1        0.0286
     11 H          -1.4726   -0.8319   -1.0543 H       1  UNL1        0.0286
     12 H          -1.2292   -1.0015   -3.5519 H       1  UNL1        0.0374
     13 H          -1.1904    0.7668   -3.6687 H       1  UNL1        0.0374
     14 H          -3.5911   -1.1759   -2.4713 H       1  UNL1        0.1016
     15 H           0.4704   -2.8747   -1.8358 H       1  UNL1        0.2363
@<TRIPOS>BOND
     1     1     2    1
     2     2     3    1
     3     3     4    1
     4     4     5    1
     5     1     6    1
     6     1     7    1
     7     2     8    1
     8     2     9    1
     9     3    10    1
    10     3    11    1
    11     4    12    1
    12     4    13    1
    13     5    14    1
    14     6    15    1
