@<TRIPOS>MOLECULE
*****
 12 11 0 0 0
SMALL
GASTEIGER

@<TRIPOS>ATOM
      1 N           0.8478   -0.2367   -0.0490 N.3     1  UNL1       -0.2398
      2 C           0.5261   -1.2052   -1.0885 C.3     1  UNL1        0.1119
      3 C           1.0138   -2.5925   -0.6980 C.3     1  UNL1       -0.0246
      4 O          -0.8754   -1.2598   -1.2565 O.3     1  UNL1       -0.3769
      5 S           0.4764    1.3720   -0.2311 S.3     1  UNL1       -0.0962
      6 H           1.8330   -0.3465    0.1934 H       1  UNL1        0.1374
      7 H           0.9814   -0.9172   -2.0430 H       1  UNL1        0.0769
      8 H           0.5446   -2.9304    0.2333 H       1  UNL1        0.0268
      9 H           2.1010   -2.6171   -0.5719 H       1  UNL1        0.0268
     10 H           0.7382   -3.3223   -1.4675 H       1  UNL1        0.0268
     11 H          -1.1668   -0.4069   -0.8884 H       1  UNL1        0.2115
     12 H           0.6140    1.7727    1.0453 H       1  UNL1        0.1194
@<TRIPOS>BOND
     1     1     2    1
     2     2     3    1
     3     2     4    1
     4     1     5    1
     5     1     6    1
     6     2     7    1
     7     3     8    1
     8     3     9    1
     9     3    10    1
    10     4    11    1
    11     5    12    1
