@<TRIPOS>MOLECULE
*****
 11 10 0 0 0
SMALL
GASTEIGER

@<TRIPOS>ATOM
      1 N           1.0338    0.2078   -0.0735 N.4     1  UNL1       -0.2045
      2 C           0.4916    1.0232   -1.1614 C.3     1  UNL1        0.0184
      3 C          -1.0272    0.9724   -1.1346 C.3     1  UNL1       -0.0504
      4 O           2.4769    0.2598   -0.2475 O.3     1  UNL1       -0.3150
      5 H           0.8275   -0.7777   -0.2593 H       1  UNL1        0.1535
      6 H           0.8517    0.6589   -2.1305 H       1  UNL1        0.0444
      7 H           0.8198    2.0621   -1.0451 H       1  UNL1        0.0444
      8 H          -1.3926   -0.0510   -1.2717 H       1  UNL1        0.0243
      9 H          -1.4393    1.5881   -1.9406 H       1  UNL1        0.0243
     10 H          -1.4199    1.3528   -0.1855 H       1  UNL1        0.0243
     11 H           2.7715    0.5720    0.6305 H       1  UNL1        0.2363
@<TRIPOS>BOND
     1     1     2    1
     2     2     3    1
     3     1     4    1
     4     1     5    1
     5     2     6    1
     6     2     7    1
     7     3     8    1
     8     3     9    1
     9     3    10    1
    10     4    11    1
