@<TRIPOS>MOLECULE
*****
 5 4 0 0 0
SMALL
GASTEIGER

@<TRIPOS>ATOM
      1 O           0.9597   -0.0699   -0.0695 O.3     1  UNL1       -0.0717
      2 O           0.4754   -1.0349   -1.0285 O.3     1  UNL1       -0.2203
      3 O           2.4038   -0.0677   -0.0673 O.3     1  UNL1       -0.2203
      4 H          -0.4684   -0.8722   -0.8668 H       1  UNL1        0.2562
      5 H           2.5021    0.6177    0.6139 H       1  UNL1        0.2562
@<TRIPOS>BOND
     1     1     2    1
     2     1     3    1
     3     2     4    1
     4     3     5    1
