@<TRIPOS>MOLECULE
*****
 9 8 0 0 0
SMALL
GASTEIGER

@<TRIPOS>ATOM
      1 O          -0.2385   -1.7245    1.0041 O.3     1  UNL1       -0.1221
      2 N           0.1173   -1.2789   -0.3207 N.4     1  UNL1       -0.0316
      3 S          -1.2656   -0.6633   -0.9763 S.O     1  UNL1        0.0999
      4 O          -1.7455    0.5523   -0.2470 O.2     1  UNL1       -0.1468
      5 O          -0.6366   -0.1071   -2.3349 O.3     1  UNL1       -0.2534
      6 O           0.4483   -0.9128    1.9801 O.3     1  UNL1       -0.2304
      7 H           0.4791   -2.1340   -0.7344 H       1  UNL1        0.1850
      8 H          -0.7890    0.8661   -2.3141 H       1  UNL1        0.2444
      9 H          -0.0631   -0.1042    1.7935 H       1  UNL1        0.2551
@<TRIPOS>BOND
     1     1     2    1
     2     2     3    1
     3     3     4    2
     4     3     5    1
     5     1     6    1
     6     2     7    1
     7     5     8    1
     8     6     9    1
