@<TRIPOS>MOLECULE
*****
 16 15 0 0 0
SMALL
GASTEIGER

@<TRIPOS>ATOM
      1 O           1.8537    0.4725    0.8103 O.3     1  UNL1       -0.1863
      2 N           1.6881    0.8191   -0.5908 N.4     1  UNL1       -0.1925
      3 N           2.3754   -0.8765    0.9370 N.4     1  UNL1       -0.0442
      4 C           1.6968   -1.4411    2.1240 C.3     1  UNL1        0.0885
      5 C           2.0802   -0.7791    3.4685 C.3     1  UNL1        0.1152
      6 S           3.8726   -0.6832    3.7425 S.3     1  UNL1       -0.1462
      7 O           1.5222    0.5262    3.5769 O.3     1  UNL1       -0.3801
      8 O           1.8727   -1.6713   -0.1798 O.3     1  UNL1       -0.2868
      9 H           2.4564    1.4855   -0.6839 H       1  UNL1        0.1520
     10 H           0.8442    1.3898   -0.5222 H       1  UNL1        0.1520
     11 H           1.9535   -2.5070    2.1865 H       1  UNL1        0.0510
     12 H           0.6085   -1.3751    1.9930 H       1  UNL1        0.0510
     13 H           1.6547   -1.3707    4.2856 H       1  UNL1        0.0722
     14 H           4.1679   -0.3491    2.4747 H       1  UNL1        0.1042
     15 H           2.1019    0.9823    4.2116 H       1  UNL1        0.2110
     16 H           1.6844   -0.9243   -0.7913 H       1  UNL1        0.2392
@<TRIPOS>BOND
     1     1     2    1
     2     1     3    1
     3     3     4    1
     4     4     5    1
     5     5     6    1
     6     5     7    1
     7     3     8    1
     8     2     9    1
     9     2    10    1
    10     4    11    1
    11     4    12    1
    12     5    13    1
    13     6    14    1
    14     7    15    1
    15     8    16    1
