@<TRIPOS>MOLECULE
*****
 10 9 0 0 0
SMALL
GASTEIGER

@<TRIPOS>ATOM
      1 O           0.9254   -1.6169    0.6525 O.3     1  UNL1       -0.1230
      2 N           0.3849   -0.9225   -0.4956 N.4     1  UNL1       -0.0450
      3 S          -1.0553   -1.6564   -0.8172 S.3     1  UNL1        0.0033
      4 O          -1.7751   -0.4113   -1.5108 O.3     1  UNL1       -0.2652
      5 O          -0.6376   -2.3709   -2.1820 O.3     1  UNL1       -0.2652
      6 O           1.1889   -0.6693    1.7077 O.3     1  UNL1       -0.2304
      7 H           1.1269   -1.1220   -1.1686 H       1  UNL1        0.1838
      8 H          -1.3446    0.4139   -1.1808 H       1  UNL1        0.2433
      9 H          -1.3606   -2.2233   -2.8369 H       1  UNL1        0.2433
     10 H           0.2785   -0.6638    2.0458 H       1  UNL1        0.2551
@<TRIPOS>BOND
     1     1     2    1
     2     2     3    1
     3     3     4    1
     4     3     5    1
     5     1     6    1
     6     2     7    1
     7     4     8    1
     8     5     9    1
     9     6    10    1
