@<TRIPOS>MOLECULE
*****
 10 9 0 0 0
SMALL
GASTEIGER

@<TRIPOS>ATOM
      1 O          -1.3368   -2.8242   -1.8258 O.3     1  UNL1       -0.1082
      2 N          -0.2797   -2.1378   -1.1089 N.4     1  UNL1        0.0387
      3 S           1.0801   -2.2849   -2.0585 S.O     1  UNL1        0.1131
      4 O           2.3111   -1.6629   -1.4739 O.2     1  UNL1       -0.1458
      5 O           1.3209   -3.8647   -1.9072 O.3     1  UNL1       -0.2525
      6 S          -0.6829   -0.5526   -0.8523 S.3     1  UNL1       -0.0391
      7 O          -1.7493   -4.0062   -1.0949 O.3     1  UNL1       -0.2294
      8 H           2.2610   -3.9495   -1.6186 H       1  UNL1        0.2444
      9 H           0.4466   -0.1661   -0.2339 H       1  UNL1        0.1236
     10 H          -0.9355   -4.5087   -1.2773 H       1  UNL1        0.2551
@<TRIPOS>BOND
     1     1     2    1
     2     2     3    1
     3     3     4    2
     4     3     5    1
     5     2     6    1
     6     1     7    1
     7     5     8    1
     8     6     9    1
     9     7    10    1
