@<TRIPOS>MOLECULE
*****
 12 11 0 0 0
SMALL
GASTEIGER

@<TRIPOS>ATOM
      1 N           0.7897    0.1196    0.0122 N.4     1  UNL1       -0.2020
      2 C           0.3337    1.0123   -1.0683 C.3     1  UNL1        0.0444
      3 C          -1.1862    0.9013   -1.2231 C.3     1  UNL1        0.0589
      4 O          -1.8321    1.2085    0.0108 O.3     1  UNL1       -0.3937
      5 O           2.2378    0.2670    0.0272 O.3     1  UNL1       -0.3149
      6 H           0.6799   -0.8524   -0.2941 H       1  UNL1        0.1536
      7 H           0.8236    0.7603   -2.0152 H       1  UNL1        0.0470
      8 H           0.5919    2.0433   -0.8005 H       1  UNL1        0.0470
      9 H          -1.4792   -0.1112   -1.5199 H       1  UNL1        0.0570
     10 H          -1.5474    1.6014   -1.9821 H       1  UNL1        0.0570
     11 H          -1.2541    0.8300    0.7026 H       1  UNL1        0.2095
     12 H           2.4109    0.5063    0.9593 H       1  UNL1        0.2363
@<TRIPOS>BOND
     1     1     2    1
     2     2     3    1
     3     3     4    1
     4     1     5    1
     5     1     6    1
     6     2     7    1
     7     2     8    1
     8     3     9    1
     9     3    10    1
    10     4    11    1
    11     5    12    1
