@<TRIPOS>MOLECULE
*****
 26 25 0 0 0
SMALL
GASTEIGER

@<TRIPOS>ATOM
      1 O           1.3828   -0.6348   -0.5071 O.3     1  UNL1       -0.1701
      2 N           0.6070    0.4136   -1.1438 N.4     1  UNL1       -0.0940
      3 S          -0.9684   -0.0722   -1.0238 S.3     1  UNL1        0.0966
      4 N          -1.6428    1.1402   -1.9346 N.3     1  UNL1       -0.1808
      5 S          -3.3112    1.0961   -1.8731 S.3     1  UNL1       -0.0790
      6 C          -3.5347    2.8202   -2.3993 C.3     1  UNL1       -0.0034
      7 S          -3.6941    0.1127   -3.6057 S.3     1  UNL1       -0.1056
      8 O          -0.9398   -1.1963   -2.1627 O.3     1  UNL1       -0.3122
      9 N           2.7800   -0.2414   -0.4159 N.4     1  UNL1       -0.0363
     10 C           3.4439   -1.4652    0.0501 C.3     1  UNL1        0.0990
     11 S           5.2202   -1.2044    0.3817 S.3     1  UNL1       -0.1437
     12 C           5.0778   -0.1237    1.8242 C.3     1  UNL1       -0.0167
     13 O           3.2839   -0.0255   -1.7718 O.3     1  UNL1       -0.2862
     14 H           1.0078    0.3145   -2.0735 H       1  UNL1        0.1725
     15 H          -1.1874    2.0431   -1.7969 H       1  UNL1        0.1512
     16 H          -3.2174    3.4827   -1.5896 H       1  UNL1        0.0353
     17 H          -4.5959    2.9908   -2.5996 H       1  UNL1        0.0353
     18 H          -2.9556    3.0386   -3.3012 H       1  UNL1        0.0353
     19 H          -4.9502    0.5428   -3.8003 H       1  UNL1        0.1144
     20 H          -1.7245   -1.0543   -2.7477 H       1  UNL1        0.2291
     21 H           3.3507   -2.2686   -0.6908 H       1  UNL1        0.0589
     22 H           2.9826   -1.8227    0.9775 H       1  UNL1        0.0589
     23 H           6.0797    0.0977    2.2020 H       1  UNL1        0.0341
     24 H           4.5119   -0.6184    2.6175 H       1  UNL1        0.0341
     25 H           4.5955    0.8195    1.5571 H       1  UNL1        0.0341
     26 H           3.7362    0.8296   -1.6482 H       1  UNL1        0.2392
@<TRIPOS>BOND
     1     1     2    1
     2     2     3    1
     3     3     4    1
     4     4     5    1
     5     5     6    1
     6     5     7    1
     7     3     8    1
     8     1     9    1
     9     9    10    1
    10    10    11    1
    11    11    12    1
    12     9    13    1
    13     2    14    1
    14     4    15    1
    15     6    16    1
    16     6    17    1
    17     6    18    1
    18     7    19    1
    19     8    20    1
    20    10    21    1
    21    10    22    1
    22    12    23    1
    23    12    24    1
    24    12    25    1
    25    13    26    1
