@<TRIPOS>MOLECULE
*****
 13 12 0 0 0
SMALL
GASTEIGER

@<TRIPOS>ATOM
      1 N           1.0686   -0.0682   -0.1796 N.3     1  UNL1       -0.2648
      2 C           0.5155   -0.2339   -1.5288 C.3     1  UNL1        0.0186
      3 C          -1.0192   -0.1255   -1.5015 C.3     1  UNL1        0.0065
      4 N          -1.6000   -0.2884   -2.8343 N.3     1  UNL1       -0.3287
      5 S           2.7118   -0.0541    0.0552 S.3     1  UNL1       -0.0983
      6 H           0.6410   -0.7641    0.4340 H       1  UNL1        0.1348
      7 H           0.8083   -1.2103   -1.9349 H       1  UNL1        0.0446
      8 H           0.9192    0.5406   -2.1932 H       1  UNL1        0.0446
      9 H          -1.3196    0.8485   -1.0981 H       1  UNL1        0.0435
     10 H          -1.4351   -0.8974   -0.8440 H       1  UNL1        0.0435
     11 H          -1.2731    0.4626   -3.4421 H       1  UNL1        0.1183
     12 H          -2.6121   -0.1793   -2.7733 H       1  UNL1        0.1183
     13 H           3.0183    1.0614   -0.6294 H       1  UNL1        0.1193
@<TRIPOS>BOND
     1     1     2    1
     2     2     3    1
     3     3     4    1
     4     1     5    1
     5     1     6    1
     6     2     7    1
     7     2     8    1
     8     3     9    1
     9     3    10    1
    10     4    11    1
    11     4    12    1
    12     5    13    1
