@<TRIPOS>MOLECULE
*****
 18 17 0 0 0
SMALL
GASTEIGER

@<TRIPOS>ATOM
      1 N          -0.4710    0.9243   -0.8698 N.4     1  UNL1       -0.1125
      2 N           0.9394    0.9427   -1.0167 N.4     1  UNL1       -0.1018
      3 C           1.2962    0.4805   -2.3728 C.3     1  UNL1        0.0445
      4 C           2.8143    0.3939   -2.5477 C.3     1  UNL1       -0.0132
      5 C           3.1762   -0.0883   -3.9455 C.3     1  UNL1        0.0455
      6 O           4.5880   -0.1935   -4.0754 O.3     1  UNL1       -0.3950
      7 O           1.3814    2.3230   -0.9487 O.3     1  UNL1       -0.2957
      8 O          -0.7982    1.2783    0.4980 O.3     1  UNL1       -0.2983
      9 H          -0.8419   -0.0326   -0.9266 H       1  UNL1        0.1760
     10 H           0.8679    1.1449   -3.1356 H       1  UNL1        0.0466
     11 H           0.8734   -0.5195   -2.5372 H       1  UNL1        0.0466
     12 H           3.2463   -0.2883   -1.8044 H       1  UNL1        0.0301
     13 H           3.2882    1.3677   -2.3737 H       1  UNL1        0.0301
     14 H           2.8098    0.6028   -4.7116 H       1  UNL1        0.0557
     15 H           2.7471   -1.0758   -4.1421 H       1  UNL1        0.0557
     16 H           4.9681    0.6791   -3.8745 H       1  UNL1        0.2094
     17 H           0.5074    2.7593   -0.9454 H       1  UNL1        0.2383
     18 H           0.0957    1.2459    0.8932 H       1  UNL1        0.2380
@<TRIPOS>BOND
     1     1     2    1
     2     2     3    1
     3     3     4    1
     4     4     5    1
     5     5     6    1
     6     2     7    1
     7     1     8    1
     8     1     9    1
     9     3    10    1
    10     3    11    1
    11     4    12    1
    12     4    13    1
    13     5    14    1
    14     5    15    1
    15     6    16    1
    16     7    17    1
    17     8    18    1
