@<TRIPOS>MOLECULE
*****
 17 16 0 0 0
SMALL
GASTEIGER

@<TRIPOS>ATOM
      1 N           1.3507    2.0023   -0.6506 N.4     1  UNL1       -0.2020
      2 C           0.7076    0.7135   -0.9600 C.3     1  UNL1        0.0447
      3 C          -0.8101    0.8289   -1.1564 C.3     1  UNL1        0.0640
      4 O          -1.0779    1.7338   -2.2329 O.3     1  UNL1       -0.3636
      5 C          -2.4668    1.9068   -2.4306 C.3     1  UNL1        0.0957
      6 N          -2.6540    2.7343   -3.5983 N.3     1  UNL1       -0.3084
      7 O           0.8572    2.3913    0.6615 O.3     1  UNL1       -0.3149
      8 H           0.9175    2.7023   -1.2666 H       1  UNL1        0.1536
      9 H           0.9366   -0.0174   -0.1767 H       1  UNL1        0.0470
     10 H           1.1556    0.3481   -1.8909 H       1  UNL1        0.0470
     11 H          -1.2951    1.1866   -0.2407 H       1  UNL1        0.0574
     12 H          -1.2167   -0.1579   -1.4060 H       1  UNL1        0.0574
     13 H          -2.8998    2.3969   -1.5519 H       1  UNL1        0.0727
     14 H          -2.9586    0.9404   -2.5832 H       1  UNL1        0.0727
     15 H          -1.9948    3.5058   -3.5256 H       1  UNL1        0.1203
     16 H          -3.5868    3.1361   -3.5828 H       1  UNL1        0.1203
     17 H           1.6903    2.6027    1.1273 H       1  UNL1        0.2363
@<TRIPOS>BOND
     1     1     2    1
     2     2     3    1
     3     3     4    1
     4     4     5    1
     5     5     6    1
     6     1     7    1
     7     1     8    1
     8     2     9    1
     9     2    10    1
    10     3    11    1
    11     3    12    1
    12     5    13    1
    13     5    14    1
    14     6    15    1
    15     6    16    1
    16     7    17    1
