@<TRIPOS>MOLECULE
*****
 12 11 0 0 0
SMALL
GASTEIGER

@<TRIPOS>ATOM
      1 O           1.2232    0.6522   -0.6461 O.3     1  UNL1       -0.1306
      2 N           0.2949    0.2738   -1.6850 N.4     1  UNL1       -0.0785
      3 S          -1.1195   -0.1045   -0.9036 S.3     1  UNL1        0.1657
      4 S          -2.0929    1.6485   -1.0430 S.O     1  UNL1        0.0890
      5 O          -3.4594    1.1773   -0.6488 O.2     1  UNL1       -0.1520
      6 O          -1.4397    2.4055    0.2118 O.3     1  UNL1       -0.2574
      7 O          -1.8459   -0.9376   -2.0686 O.3     1  UNL1       -0.3075
      8 O           1.3324    2.0942   -0.6058 O.3     1  UNL1       -0.2309
      9 H           0.7767   -0.5134   -2.1203 H       1  UNL1        0.1739
     10 H          -0.4558    2.3218    0.1350 H       1  UNL1        0.2439
     11 H          -2.8277   -0.8355   -1.9576 H       1  UNL1        0.2294
     12 H           1.9750    2.1556   -1.3355 H       1  UNL1        0.2551
@<TRIPOS>BOND
     1     1     2    1
     2     2     3    1
     3     3     4    1
     4     4     5    2
     5     4     6    1
     6     3     7    1
     7     1     8    1
     8     2     9    1
     9     6    10    1
    10     7    11    1
    11     8    12    1
