@<TRIPOS>MOLECULE
*****
 11 10 0 0 0
SMALL
GASTEIGER

@<TRIPOS>ATOM
      1 N           1.0818    0.0117   -0.1336 N.4     1  UNL1       -0.1128
      2 N           0.4889    0.7752   -1.1716 N.4     1  UNL1       -0.1050
      3 C           0.8294    0.1690   -2.4623 C.3     1  UNL1        0.0310
      4 O          -0.9573    0.6782   -1.0955 O.3     1  UNL1       -0.2960
      5 O           0.6666    0.5165    1.1618 O.3     1  UNL1       -0.2983
      6 H           2.0956    0.1665   -0.1010 H       1  UNL1        0.1760
      7 H           1.9131    0.1884   -2.6256 H       1  UNL1        0.0430
      8 H           0.3736    0.7424   -3.2772 H       1  UNL1        0.0430
      9 H           0.4846   -0.8693   -2.5385 H       1  UNL1        0.0430
     10 H          -1.1530    1.5594   -0.7315 H       1  UNL1        0.2383
     11 H           0.1054   -0.2239    1.4567 H       1  UNL1        0.2380
@<TRIPOS>BOND
     1     1     2    1
     2     2     3    1
     3     2     4    1
     4     1     5    1
     5     1     6    1
     6     3     7    1
     7     3     8    1
     8     3     9    1
     9     4    10    1
    10     5    11    1
