@<TRIPOS>MOLECULE
*****
 11 10 0 0 0
SMALL
GASTEIGER

@<TRIPOS>ATOM
      1 N           1.2456    0.4204   -0.3561 N.4     1  UNL1       -0.1334
      2 S           0.7072    1.7161   -1.2456 S.3     1  UNL1        0.0044
      3 C           0.8227    0.8403   -2.8340 C.3     1  UNL1        0.0127
      4 O          -0.8739    1.4720   -1.1149 O.3     1  UNL1       -0.3245
      5 O           0.4618    0.3916    0.8685 O.3     1  UNL1       -0.3035
      6 H           2.2032    0.4833    0.0043 H       1  UNL1        0.1690
      7 H           1.8766    0.6946   -3.0855 H       1  UNL1        0.0367
      8 H           0.3553    1.4587   -3.6048 H       1  UNL1        0.0367
      9 H           0.3146   -0.1274   -2.7888 H       1  UNL1        0.0367
     10 H          -1.1095    1.4981   -0.1573 H       1  UNL1        0.2278
     11 H           0.0742   -0.5029    0.8050 H       1  UNL1        0.2374
@<TRIPOS>BOND
     1     1     2    1
     2     2     3    1
     3     2     4    1
     4     1     5    1
     5     1     6    1
     6     3     7    1
     7     3     8    1
     8     3     9    1
     9     4    10    1
    10     5    11    1
