@<TRIPOS>MOLECULE
*****
 8 7 0 0 0
SMALL
GASTEIGER

@<TRIPOS>ATOM
      1 N           1.0688   -0.0768   -0.1843 N.4     1  UNL1       -0.2073
      2 C           0.4849   -1.1555   -0.9736 C.3     1  UNL1        0.0097
      3 O           2.5034   -0.3131   -0.2321 O.3     1  UNL1       -0.3153
      4 H           0.8570   -0.2379    0.8041 H       1  UNL1        0.1532
      5 H           0.7842   -1.0724   -2.0230 H       1  UNL1        0.0411
      6 H          -0.6064   -1.0925   -0.9294 H       1  UNL1        0.0411
      7 H           0.7854   -2.1373   -0.5933 H       1  UNL1        0.0411
      8 H           2.8352    0.5458   -0.5600 H       1  UNL1        0.2362
@<TRIPOS>BOND
     1     1     2    1
     2     1     3    1
     3     1     4    1
     4     2     5    1
     5     2     6    1
     6     2     7    1
     7     3     8    1
