@<TRIPOS>MOLECULE
*****
 16 15 0 0 0
SMALL
GASTEIGER

@<TRIPOS>ATOM
      1 N           0.8830    0.3659   -0.3158 N.3     1  UNL1       -0.1569
      2 N           0.5639    0.5077    1.0713 N.4     1  UNL1       -0.1109
      3 C           0.6165    1.9407    1.4184 C.3     1  UNL1        0.0388
      4 C           0.4000    2.1639    2.9113 C.3     1  UNL1       -0.0487
      5 O          -0.8106    0.1027    1.3267 O.3     1  UNL1       -0.2964
      6 N           0.7128   -0.9845   -0.7353 N.3     1  UNL1       -0.1873
      7 S           1.1326   -1.1466   -2.3264 S.3     1  UNL1       -0.0817
      8 H           1.8498    0.6554   -0.4888 H       1  UNL1        0.1634
      9 H          -0.1278    2.5134    0.8498 H       1  UNL1        0.0463
     10 H           1.6049    2.3436    1.1626 H       1  UNL1        0.0463
     11 H          -0.6035    1.8596    3.2257 H       1  UNL1        0.0243
     12 H           0.5159    3.2259    3.1511 H       1  UNL1        0.0243
     13 H           1.1314    1.6039    3.5035 H       1  UNL1        0.0243
     14 H          -0.6478   -0.6594    1.9108 H       1  UNL1        0.2382
     15 H          -0.2713   -1.2296   -0.6021 H       1  UNL1        0.1555
     16 H           2.4674   -1.1461   -2.1872 H       1  UNL1        0.1206
@<TRIPOS>BOND
     1     1     2    1
     2     2     3    1
     3     3     4    1
     4     2     5    1
     5     1     6    1
     6     6     7    1
     7     1     8    1
     8     3     9    1
     9     3    10    1
    10     4    11    1
    11     4    12    1
    12     4    13    1
    13     5    14    1
    14     6    15    1
    15     7    16    1
