@<TRIPOS>MOLECULE
*****
 8 7 0 0 0
SMALL
GASTEIGER

@<TRIPOS>ATOM
      1 O           1.1317   -0.0780    0.0837 O.3     1  UNL1       -0.0792
      2 S           0.6069   -0.7243   -1.2941 S.3     1  UNL1        0.0722
      3 O           0.7116   -2.2616   -0.8605 O.3     1  UNL1       -0.2555
      4 O          -0.9649   -0.5878   -1.0064 O.3     1  UNL1       -0.2555
      5 O           0.5854    1.2553    0.2751 O.3     1  UNL1       -0.2259
      6 H           1.5504   -2.3957   -0.3548 H       1  UNL1        0.2443
      7 H          -1.3689   -1.4796   -1.1385 H       1  UNL1        0.2443
      8 H          -0.3509    0.9762    0.2919 H       1  UNL1        0.2554
@<TRIPOS>BOND
     1     1     2    1
     2     2     3    1
     3     2     4    1
     4     1     5    1
     5     3     6    1
     6     4     7    1
     7     5     8    1
