@<TRIPOS>MOLECULE
*****
 6 5 0 0 0
SMALL
GASTEIGER

@<TRIPOS>ATOM
      1 O           1.0683   -0.0218   -0.0612 O.3     1  UNL1       -0.3982
      2 C           2.4840   -0.0163   -0.0703 C.3     1  UNL1        0.0330
      3 H           0.7755    0.4526   -0.8579 H       1  UNL1        0.2090
      4 H           2.8471   -0.5434    0.8150 H       1  UNL1        0.0521
      5 H           2.8454    1.0148   -0.0516 H       1  UNL1        0.0521
      6 H           2.8454   -0.5242   -0.9679 H       1  UNL1        0.0521
@<TRIPOS>BOND
     1     1     2    1
     2     1     3    1
     3     2     4    1
     4     2     5    1
     5     2     6    1
