@<TRIPOS>MOLECULE
*****
 13 12 0 0 0
SMALL
GASTEIGER

@<TRIPOS>ATOM
      1 O          -0.2497    0.2973   -1.3967 O.3     1  UNL1       -0.1153
      2 N           1.1840    0.3047   -1.6071 N.4     1  UNL1       -0.0349
      3 C           1.3352    0.2060   -3.0662 C.3     1  UNL1        0.0518
      4 C           2.8024    0.1702   -3.4737 C.3     1  UNL1       -0.0477
      5 O           1.6634    1.6300   -1.2499 O.3     1  UNL1       -0.2862
      6 O          -0.5609   -0.6847   -0.3898 O.3     1  UNL1       -0.2297
      7 H           0.8326    1.0399   -3.5722 H       1  UNL1        0.0473
      8 H           0.8617   -0.7207   -3.4120 H       1  UNL1        0.0473
      9 H           3.3185    1.0994   -3.2119 H       1  UNL1        0.0244
     10 H           2.8875    0.0349   -4.5570 H       1  UNL1        0.0244
     11 H           3.3258   -0.6619   -2.9895 H       1  UNL1        0.0244
     12 H           2.1954    1.4301   -0.4588 H       1  UNL1        0.2392
     13 H           0.3230   -1.0882   -0.4079 H       1  UNL1        0.2551
@<TRIPOS>BOND
     1     1     2    1
     2     2     3    1
     3     3     4    1
     4     2     5    1
     5     1     6    1
     6     3     7    1
     7     3     8    1
     8     4     9    1
     9     4    10    1
    10     4    11    1
    11     5    12    1
    12     6    13    1
