@<TRIPOS>MOLECULE
*****
 21 20 0 0 0
SMALL
GASTEIGER

@<TRIPOS>ATOM
      1 N           0.5832   -2.9192   -0.8935 N.4     1  UNL1       -0.1384
      2 N          -0.6031   -2.6404   -0.1559 N.3     1  UNL1       -0.2324
      3 C          -1.3309   -1.5172   -0.7662 C.3     1  UNL1        0.0269
      4 C          -2.0018   -1.9033   -2.1031 C.3     1  UNL1        0.0298
      5 N          -2.8496   -0.8265   -2.6648 N.3     1  UNL1       -0.2196
      6 C          -2.0521    0.3286   -3.0920 C.3     1  UNL1        0.1097
      7 O          -2.8985    1.2172   -3.7944 O.3     1  UNL1       -0.3787
      8 N          -3.6187   -1.3395   -3.8023 N.3     1  UNL1       -0.2658
      9 O           1.2788   -4.0179   -0.2596 O.3     1  UNL1       -0.3003
     10 H           1.2822   -2.1670   -0.8341 H       1  UNL1        0.1735
     11 H          -0.3808   -2.4125    0.8169 H       1  UNL1        0.1428
     12 H          -0.6600   -0.6580   -0.8855 H       1  UNL1        0.0452
     13 H          -2.1143   -1.2094   -0.0626 H       1  UNL1        0.0452
     14 H          -2.6355   -2.7807   -1.9123 H       1  UNL1        0.0454
     15 H          -1.2454   -2.2120   -2.8369 H       1  UNL1        0.0454
     16 H          -1.2317    0.0412   -3.7592 H       1  UNL1        0.0741
     17 H          -1.6427    0.8708   -2.2353 H       1  UNL1        0.0741
     18 H          -3.6529    0.6171   -3.9689 H       1  UNL1        0.2112
     19 H          -4.3035   -2.0319   -3.4835 H       1  UNL1        0.1371
     20 H          -3.0200   -1.8268   -4.4765 H       1  UNL1        0.1371
     21 H           1.1026   -4.7339   -0.8979 H       1  UNL1        0.2379
@<TRIPOS>BOND
     1     1     2    1
     2     2     3    1
     3     3     4    1
     4     4     5    1
     5     5     6    1
     6     6     7    1
     7     5     8    1
     8     1     9    1
     9     1    10    1
    10     2    11    1
    11     3    12    1
    12     3    13    1
    13     4    14    1
    14     4    15    1
    15     6    16    1
    16     6    17    1
    17     7    18    1
    18     8    19    1
    19     8    20    1
    20     9    21    1
