@<TRIPOS>MOLECULE
*****
 7 6 0 0 0
SMALL
GASTEIGER

@<TRIPOS>ATOM
      1 N           0.9592   -0.3138    0.0739 N.4     1  UNL1       -0.1689
      2 N           0.4449   -1.1306   -0.8592 N.2     1  UNL1       -0.0548
      3 N          -0.7593   -0.8602   -0.9847 N.2     1  UNL1       -0.1838
      4 O           2.3513   -0.0841    0.0267 O.3     1  UNL1       -0.2714
      5 H           0.3941    0.5179    0.2368 H       1  UNL1        0.2193
      6 H          -1.2119   -1.4747   -1.6729 H       1  UNL1        0.2136
      7 H           2.5992   -0.6929   -0.6922 H       1  UNL1        0.2460
@<TRIPOS>BOND
     1     1     2    1
     2     2     3    2
     3     1     4    1
     4     1     5    1
     5     3     6    1
     6     4     7    1
