@<TRIPOS>MOLECULE
*****
 13 12 0 0 0
SMALL
GASTEIGER

@<TRIPOS>ATOM
      1 N           0.7599   -0.2490   -0.2247 N.4     1  UNL1       -0.1737
      2 C           0.2696   -0.8926   -1.4404 C.3     1  UNL1        0.1507
      3 C           1.1752   -2.0442   -1.9204 C.3     1  UNL1        0.0854
      4 O           1.2598   -3.0513   -0.9008 O.3     1  UNL1       -0.3910
      5 O          -0.9959   -1.4435   -1.1129 O.3     1  UNL1       -0.3731
      6 O           1.9224    0.5322   -0.6279 O.3     1  UNL1       -0.3126
      7 H           1.1984   -0.9931    0.3336 H       1  UNL1        0.1565
      8 H           0.1229   -0.1587   -2.2401 H       1  UNL1        0.0808
      9 H           2.1867   -1.7008   -2.1558 H       1  UNL1        0.0597
     10 H           0.7472   -2.5210   -2.8082 H       1  UNL1        0.0597
     11 H           0.3302   -3.2148   -0.6439 H       1  UNL1        0.2096
     12 H          -1.3568   -0.7932   -0.4847 H       1  UNL1        0.2116
     13 H           1.7599    1.3871   -0.1817 H       1  UNL1        0.2364
@<TRIPOS>BOND
     1     1     2    1
     2     2     3    1
     3     3     4    1
     4     2     5    1
     5     1     6    1
     6     1     7    1
     7     2     8    1
     8     3     9    1
     9     3    10    1
    10     4    11    1
    11     5    12    1
    12     6    13    1
