@<TRIPOS>MOLECULE
*****
 25 24 0 0 0
SMALL
GASTEIGER

@<TRIPOS>ATOM
      1 C           0.1569   -1.6605   -2.1659 C.3     1  UNL1       -0.0069
      2 C          -0.2150   -0.2175   -1.8270 C.3     1  UNL1       -0.0406
      3 C          -1.7359   -0.0426   -1.7636 C.3     1  UNL1       -0.0511
      4 C          -2.1156    1.3660   -1.2987 C.3     1  UNL1       -0.0427
      5 C          -3.6045    1.6939   -1.3853 C.3     1  UNL1        0.0083
      6 S          -4.7575    1.0616   -0.1211 S.3     1  UNL1       -0.0878
      7 C          -3.7932    1.4491    1.3574 C.3     1  UNL1       -0.0032
      8 O          -4.2781   -0.4675   -0.1941 O.3     1  UNL1       -0.3404
      9 N           1.6066   -1.8175   -2.2029 N.3     1  UNL1       -0.3300
     10 H          -0.2596   -1.9393   -3.1396 H       1  UNL1        0.0422
     11 H          -0.2597   -2.3433   -1.4170 H       1  UNL1        0.0422
     12 H           0.2020    0.4634   -2.5796 H       1  UNL1        0.0277
     13 H           0.2244    0.0603   -0.8605 H       1  UNL1        0.0277
     14 H          -2.1370   -0.7925   -1.0784 H       1  UNL1        0.0266
     15 H          -2.1671   -0.2377   -2.7532 H       1  UNL1        0.0266
     16 H          -1.5982    2.0762   -1.9584 H       1  UNL1        0.0274
     17 H          -1.7133    1.5541   -0.2997 H       1  UNL1        0.0274
     18 H          -4.0037    1.3839   -2.3575 H       1  UNL1        0.0390
     19 H          -3.7149    2.7839   -1.3372 H       1  UNL1        0.0390
     20 H          -2.8510    0.8987    1.3880 H       1  UNL1        0.0354
     21 H          -4.3853    1.1617    2.2307 H       1  UNL1        0.0354
     22 H          -3.6064    2.5248    1.3966 H       1  UNL1        0.0354
     23 H          -5.0494   -1.0863   -0.1645 H       1  UNL1        0.2262
     24 H           1.9998   -1.5699   -1.2958 H       1  UNL1        0.1182
     25 H           1.8336   -2.7999   -2.3528 H       1  UNL1        0.1182
@<TRIPOS>BOND
     1     1     2    1
     2     2     3    1
     3     3     4    1
     4     4     5    1
     5     5     6    1
     6     6     7    1
     7     6     8    1
     8     1     9    1
     9     1    10    1
    10     1    11    1
    11     2    12    1
    12     2    13    1
    13     3    14    1
    14     3    15    1
    15     4    16    1
    16     4    17    1
    17     5    18    1
    18     5    19    1
    19     7    20    1
    20     7    21    1
    21     7    22    1
    22     8    23    1
    23     9    24    1
    24     9    25    1
