@<TRIPOS>MOLECULE
*****
 30 29 0 0 0
SMALL
GASTEIGER

@<TRIPOS>ATOM
      1 N          -0.0468   -5.0746   -3.4998 N.4     1  UNL1       -0.1373
      2 N           0.1243   -3.7720   -2.9205 N.3     1  UNL1       -0.2197
      3 C          -1.0048   -2.9209   -3.2848 C.3     1  UNL1        0.0623
      4 N          -2.1944   -3.4723   -2.6533 N.3     1  UNL1       -0.3028
      5 C          -3.3409   -2.5888   -2.8393 C.3     1  UNL1       -0.0029
      6 C          -4.5813   -3.1935   -2.1781 C.3     1  UNL1       -0.0392
      7 C          -5.8129   -2.3176   -2.4287 C.3     1  UNL1       -0.0369
      8 C          -7.0738   -2.9396   -1.8182 C.3     1  UNL1        0.0241
      9 N          -8.2571   -2.0777   -1.9771 N.4     1  UNL1       -0.1939
     10 C          -8.7189   -2.0219   -3.3657 C.3     1  UNL1        0.0128
     11 O          -9.3213   -2.7838   -1.2734 O.3     1  UNL1       -0.3125
     12 O           0.9246   -5.9863   -2.9347 O.3     1  UNL1       -0.3003
     13 H          -0.9439   -5.4684   -3.1749 H       1  UNL1        0.1735
     14 H           0.9790   -3.3450   -3.2781 H       1  UNL1        0.1442
     15 H          -1.1187   -2.8628   -4.3744 H       1  UNL1        0.0604
     16 H          -0.8049   -1.9105   -2.9101 H       1  UNL1        0.0604
     17 H          -1.9789   -3.5779   -1.6631 H       1  UNL1        0.1232
     18 H          -3.5329   -2.4539   -3.9106 H       1  UNL1        0.0424
     19 H          -3.1403   -1.6019   -2.4047 H       1  UNL1        0.0424
     20 H          -4.4165   -3.2976   -1.0982 H       1  UNL1        0.0278
     21 H          -4.7623   -4.1995   -2.5772 H       1  UNL1        0.0278
     22 H          -5.9386   -2.1897   -3.5098 H       1  UNL1        0.0279
     23 H          -5.6462   -1.3213   -2.0005 H       1  UNL1        0.0279
     24 H          -6.8967   -3.0843   -0.7446 H       1  UNL1        0.0450
     25 H          -7.2512   -3.9340   -2.2484 H       1  UNL1        0.0450
     26 H          -8.0120   -1.4713   -3.9941 H       1  UNL1        0.0414
     27 H          -9.6697   -1.4804   -3.4210 H       1  UNL1        0.0414
     28 H          -8.8696   -3.0186   -3.7957 H       1  UNL1        0.0414
     29 H          -9.5862   -2.1154   -0.6133 H       1  UNL1        0.2365
     30 H           1.3668   -6.3077   -3.7410 H       1  UNL1        0.2379
@<TRIPOS>BOND
     1     1     2    1
     2     2     3    1
     3     3     4    1
     4     4     5    1
     5     5     6    1
     6     6     7    1
     7     7     8    1
     8     8     9    1
     9     9    10    1
    10     9    11    1
    11     1    12    1
    12     1    13    1
    13     2    14    1
    14     3    15    1
    15     3    16    1
    16     4    17    1
    17     5    18    1
    18     5    19    1
    19     6    20    1
    20     6    21    1
    21     7    22    1
    22     7    23    1
    23     8    24    1
    24     8    25    1
    25    10    26    1
    26    10    27    1
    27    10    28    1
    28    11    29    1
    29    12    30    1
