@<TRIPOS>MOLECULE
*****
 13 12 0 0 0
SMALL
GASTEIGER

@<TRIPOS>ATOM
      1 N           0.8872   -0.1051   -0.3011 N.4     1  UNL1       -0.1569
      2 C           0.2530   -1.1714   -1.0639 C.3     1  UNL1        0.2408
      3 S           1.4575   -2.4825   -1.6131 S.3     1  UNL1       -0.0545
      4 O           2.7407   -1.5160   -1.6718 O.3     1  UNL1       -0.2775
      5 O           1.7263   -3.0178   -0.1166 O.3     1  UNL1       -0.2775
      6 O          -0.6636   -1.8133   -0.1986 O.3     1  UNL1       -0.3583
      7 O          -0.0847    0.9741   -0.2094 O.3     1  UNL1       -0.3113
      8 H           1.6112    0.2704   -0.9246 H       1  UNL1        0.1581
      9 H          -0.2549   -0.8081   -1.9638 H       1  UNL1        0.1038
     10 H           3.3688   -1.8192   -0.9705 H       1  UNL1        0.2419
     11 H           0.8712   -2.9448    0.3935 H       1  UNL1        0.2419
     12 H          -1.0807   -1.0496    0.2357 H       1  UNL1        0.2132
     13 H           0.0742    1.3131    0.6950 H       1  UNL1        0.2364
@<TRIPOS>BOND
     1     1     2    1
     2     2     3    1
     3     3     4    1
     4     3     5    1
     5     2     6    1
     6     1     7    1
     7     1     8    1
     8     2     9    1
     9     4    10    1
    10     5    11    1
    11     6    12    1
    12     7    13    1
