@<TRIPOS>MOLECULE
*****
 8 7 0 0 0
SMALL
GASTEIGER

@<TRIPOS>ATOM
      1 N           1.0738   -0.1127   -0.3296 N.4     1  UNL1       -0.0668
      2 S           0.4703    0.5285   -1.7309 S.O     1  UNL1        0.0973
      3 O          -0.8857   -0.0023   -2.0687 O.2     1  UNL1       -0.1469
      4 O           0.2084    2.0126   -1.1953 O.3     1  UNL1       -0.2535
      5 O           2.4667    0.2957   -0.2477 O.3     1  UNL1       -0.2943
      6 H           1.1318   -1.1309   -0.3029 H       1  UNL1        0.1816
      7 H          -0.7575    2.1596   -1.3190 H       1  UNL1        0.2444
      8 H           2.4151    0.9808    0.4472 H       1  UNL1        0.2383
@<TRIPOS>BOND
     1     1     2    1
     2     2     3    2
     3     2     4    1
     4     1     5    1
     5     1     6    1
     6     4     7    1
     7     5     8    1
