@<TRIPOS>MOLECULE
*****
 6 5 0 0 0
SMALL
GASTEIGER

@<TRIPOS>ATOM
      1 N           1.0524    0.2979    0.0065 N.4     1  UNL1       -0.0834
      2 O           0.5673    1.1469   -1.0635 O.3     1  UNL1       -0.2908
      3 O           2.4675    0.0921   -0.2305 O.3     1  UNL1       -0.2908
      4 H           0.6585   -0.6155   -0.2515 H       1  UNL1        0.1872
      5 H           0.1554    1.8760   -0.5637 H       1  UNL1        0.2389
      6 H           2.8521    0.3791    0.6185 H       1  UNL1        0.2389
@<TRIPOS>BOND
     1     1     2    1
     2     1     3    1
     3     1     4    1
     4     2     5    1
     5     3     6    1
