@<TRIPOS>MOLECULE
*****
 12 11 0 0 0
SMALL
GASTEIGER

@<TRIPOS>ATOM
      1 O           1.2890    0.9401   -1.8346 O.3     1  UNL1       -0.1319
      2 N           0.5038    1.3457   -0.6907 N.4     1  UNL1       -0.0981
      3 S          -1.0437    0.8335   -1.0028 S.3     1  UNL1        0.0073
      4 C          -1.6563    1.3228    0.6420 C.3     1  UNL1        0.0127
      5 O          -1.5796    2.1782   -1.6969 O.3     1  UNL1       -0.3244
      6 O           2.4120    0.1629   -1.3786 O.3     1  UNL1       -0.2310
      7 H           0.6586    2.3551   -0.7197 H       1  UNL1        0.1723
      8 H          -1.2718    0.6225    1.3881 H       1  UNL1        0.0367
      9 H          -2.7483    1.2692    0.6326 H       1  UNL1        0.0367
     10 H          -1.3477    2.3418    0.8934 H       1  UNL1        0.0367
     11 H          -1.8572    1.9956   -2.6276 H       1  UNL1        0.2278
     12 H           1.8684   -0.4711   -0.8811 H       1  UNL1        0.2551
@<TRIPOS>BOND
     1     1     2    1
     2     2     3    1
     3     3     4    1
     4     3     5    1
     5     1     6    1
     6     2     7    1
     7     4     8    1
     8     4     9    1
     9     4    10    1
    10     5    11    1
    11     6    12    1
