@<TRIPOS>MOLECULE
*****
 19 18 0 0 0
SMALL
GASTEIGER

@<TRIPOS>ATOM
      1 N          -0.8635    0.6896   -1.7013 N.4     1  UNL1       -0.1125
      2 N           0.5327    0.7206   -1.4568 N.4     1  UNL1       -0.1018
      3 C           1.2124   -0.2161   -2.3746 C.3     1  UNL1        0.0436
      4 C           2.7311   -0.2740   -2.1580 C.3     1  UNL1       -0.0241
      5 C           3.1054   -0.7161   -0.7446 C.3     1  UNL1       -0.0056
      6 N           4.5564   -0.8431   -0.6220 N.3     1  UNL1       -0.3299
      7 O           1.0260    2.0380   -1.8093 O.3     1  UNL1       -0.2957
      8 O          -1.5247    1.5258   -0.7184 O.3     1  UNL1       -0.2983
      9 H          -1.2620   -0.2330   -1.4862 H       1  UNL1        0.1760
     10 H           1.0146    0.0567   -3.4202 H       1  UNL1        0.0466
     11 H           0.8081   -1.2262   -2.2256 H       1  UNL1        0.0466
     12 H           3.1814    0.7020   -2.3785 H       1  UNL1        0.0291
     13 H           3.1513   -0.9809   -2.8853 H       1  UNL1        0.0291
     14 H           2.6459   -1.6842   -0.5181 H       1  UNL1        0.0422
     15 H           2.7486    0.0061   -0.0029 H       1  UNL1        0.0422
     16 H           4.9884    0.0636   -0.7997 H       1  UNL1        0.1182
     17 H           4.7898   -1.0813    0.3412 H       1  UNL1        0.1182
     18 H           0.2294    2.3817   -2.2583 H       1  UNL1        0.2383
     19 H          -0.7658    1.7195   -0.1333 H       1  UNL1        0.2380
@<TRIPOS>BOND
     1     1     2    1
     2     2     3    1
     3     3     4    1
     4     4     5    1
     5     5     6    1
     6     2     7    1
     7     1     8    1
     8     1     9    1
     9     3    10    1
    10     3    11    1
    11     4    12    1
    12     4    13    1
    13     5    14    1
    14     5    15    1
    15     6    16    1
    16     6    17    1
    17     7    18    1
    18     8    19    1
