@<TRIPOS>MOLECULE
*****
 19 18 0 0 0
SMALL
GASTEIGER

@<TRIPOS>ATOM
      1 N           1.1390   -0.1006   -0.3588 N.4     1  UNL1       -0.2042
      2 C           0.5340   -0.8380   -1.4715 C.3     1  UNL1        0.0224
      3 C          -0.9899   -0.7423   -1.3907 C.3     1  UNL1       -0.0257
      4 C          -1.6426   -1.4797   -2.5620 C.3     1  UNL1       -0.0032
      5 N          -3.1000   -1.3953   -2.4537 N.3     1  UNL1       -0.3189
      6 C          -3.7486   -2.0627   -3.5743 C.3     1  UNL1       -0.0158
      7 O           2.5688   -0.3353   -0.4843 O.3     1  UNL1       -0.3150
      8 H           0.9148   -0.5790    0.5188 H       1  UNL1        0.1535
      9 H           0.8427   -1.8899   -1.4400 H       1  UNL1        0.0448
     10 H           0.8802   -0.4118   -2.4204 H       1  UNL1        0.0448
     11 H          -1.2956    0.3122   -1.4003 H       1  UNL1        0.0290
     12 H          -1.3381   -1.1717   -0.4421 H       1  UNL1        0.0290
     13 H          -1.3296   -2.5305   -2.5503 H       1  UNL1        0.0424
     14 H          -1.3062   -1.0351   -3.5065 H       1  UNL1        0.0424
     15 H          -3.3846   -0.4159   -2.4341 H       1  UNL1        0.1216
     16 H          -3.4902   -3.1261   -3.6052 H       1  UNL1        0.0388
     17 H          -3.4777   -1.5998   -4.5288 H       1  UNL1        0.0388
     18 H          -4.8349   -1.9911   -3.4618 H       1  UNL1        0.0388
     19 H           2.9206    0.5767   -0.4861 H       1  UNL1        0.2363
@<TRIPOS>BOND
     1     1     2    1
     2     2     3    1
     3     3     4    1
     4     4     5    1
     5     5     6    1
     6     1     7    1
     7     1     8    1
     8     2     9    1
     9     2    10    1
    10     3    11    1
    11     3    12    1
    12     4    13    1
    13     4    14    1
    14     5    15    1
    15     6    16    1
    16     6    17    1
    17     6    18    1
    18     7    19    1
