@<TRIPOS>MOLECULE
*****
 20 19 0 0 0
SMALL
GASTEIGER

@<TRIPOS>ATOM
      1 N          -0.9160   -0.7392    1.2088 N.4     1  UNL1       -0.2029
      2 C          -0.1318    0.1978    0.3877 C.3     1  UNL1        0.0362
      3 C          -0.6031    0.1678   -1.0798 C.3     1  UNL1        0.0390
      4 N           0.2161    1.0345   -1.9528 N.4     1  UNL1       -0.1899
      5 C          -0.2657    0.9529   -3.3415 C.3     1  UNL1        0.0215
      6 C           0.5801    1.8097   -4.2764 C.3     1  UNL1       -0.0502
      7 O          -0.0615    2.3992   -1.5220 O.3     1  UNL1       -0.3122
      8 O          -0.3398   -0.6459    2.5418 O.3     1  UNL1       -0.3150
      9 H          -0.6742   -1.6962    0.9364 H       1  UNL1        0.1536
     10 H           0.9316   -0.0673    0.4382 H       1  UNL1        0.0461
     11 H          -0.2464    1.2094    0.7945 H       1  UNL1        0.0461
     12 H          -1.6619    0.4551   -1.1316 H       1  UNL1        0.0463
     13 H          -0.5273   -0.8652   -1.4437 H       1  UNL1        0.0463
     14 H          -1.3165    1.2600   -3.4163 H       1  UNL1        0.0447
     15 H          -0.2012   -0.0861   -3.6867 H       1  UNL1        0.0447
     16 H           0.5058    2.8737   -4.0291 H       1  UNL1        0.0243
     17 H           0.2398    1.6837   -5.3095 H       1  UNL1        0.0243
     18 H           1.6348    1.5186   -4.2320 H       1  UNL1        0.0243
     19 H           0.8384    2.7268   -1.3319 H       1  UNL1        0.2365
     20 H          -1.1239   -0.4277    3.0830 H       1  UNL1        0.2363
@<TRIPOS>BOND
     1     1     2    1
     2     2     3    1
     3     3     4    1
     4     4     5    1
     5     5     6    1
     6     4     7    1
     7     1     8    1
     8     1     9    1
     9     2    10    1
    10     2    11    1
    11     3    12    1
    12     3    13    1
    13     5    14    1
    14     5    15    1
    15     6    16    1
    16     6    17    1
    17     6    18    1
    18     7    19    1
    19     8    20    1
