@<TRIPOS>MOLECULE
*****
 15 14 0 0 0
SMALL
GASTEIGER

@<TRIPOS>ATOM
      1 N           0.6243   -1.1829   -1.7874 N.4     1  UNL1       -0.1124
      2 N           1.9570   -1.4262   -1.3616 N.4     1  UNL1       -0.0997
      3 C           2.2076   -2.8854   -1.3908 C.3     1  UNL1        0.0655
      4 C           3.5889   -3.2261   -0.8166 C.3     1  UNL1        0.0606
      5 O           3.6927   -2.7995    0.5417 O.3     1  UNL1       -0.3936
      6 O           2.8860   -0.8581   -2.3222 O.3     1  UNL1       -0.2956
      7 O           0.3792    0.2441   -1.8835 O.3     1  UNL1       -0.2983
      8 H          -0.0473   -1.4610   -1.0621 H       1  UNL1        0.1760
      9 H           2.1217   -3.2821   -2.4104 H       1  UNL1        0.0488
     10 H           1.4538   -3.3838   -0.7674 H       1  UNL1        0.0488
     11 H           4.3967   -2.7587   -1.3889 H       1  UNL1        0.0571
     12 H           3.7457   -4.3090   -0.8377 H       1  UNL1        0.0571
     13 H           3.3184   -1.8985    0.5613 H       1  UNL1        0.2095
     14 H           3.0199    0.0168   -1.9156 H       1  UNL1        0.2383
     15 H           0.2086    0.3245   -2.8404 H       1  UNL1        0.2380
@<TRIPOS>BOND
     1     1     2    1
     2     2     3    1
     3     3     4    1
     4     4     5    1
     5     2     6    1
     6     1     7    1
     7     1     8    1
     8     3     9    1
     9     3    10    1
    10     4    11    1
    11     4    12    1
    12     5    13    1
    13     6    14    1
    14     7    15    1
