@<TRIPOS>MOLECULE
*****
 5 4 0 0 0
SMALL
GASTEIGER

@<TRIPOS>ATOM
      1 O           0.9635    0.1273   -0.1160 O.3     1  UNL1       -0.1181
      2 C           0.5904    1.0741   -0.9792 C.1     1  UNL1        0.2589
      3 N           0.2453    1.8930   -1.7256 N.1     1  UNL1       -0.1611
      4 O           2.4205    0.1446   -0.1318 O.3     1  UNL1       -0.2342
      5 H           2.5398   -0.5695    0.5191 H       1  UNL1        0.2545
@<TRIPOS>BOND
     1     1     2    1
     2     2     3    3
     3     1     4    1
     4     4     5    1
