@<TRIPOS>MOLECULE
*****
 10 9 0 0 0
SMALL
GASTEIGER

@<TRIPOS>ATOM
      1 O           0.7945   -0.6618   -0.4829 O.3     1  UNL1       -0.1155
      2 N           0.5772    0.7037   -0.9099 N.4     1  UNL1       -0.0378
      3 C           1.0077    0.7231   -2.3069 C.3     1  UNL1        0.0432
      4 O          -0.8591    0.9174   -0.9632 O.3     1  UNL1       -0.2864
      5 O           1.3836   -0.6490    0.8330 O.3     1  UNL1       -0.2297
      6 H           2.0819    0.5204   -2.3741 H       1  UNL1        0.0439
      7 H           0.8365    1.7139   -2.7407 H       1  UNL1        0.0439
      8 H           0.4758   -0.0182   -2.9143 H       1  UNL1        0.0439
      9 H          -0.9897    1.4546   -0.1608 H       1  UNL1        0.2392
     10 H           2.0654    0.0047    0.6065 H       1  UNL1        0.2551
@<TRIPOS>BOND
     1     1     2    1
     2     2     3    1
     3     2     4    1
     4     1     5    1
     5     3     6    1
     6     3     7    1
     7     3     8    1
     8     4     9    1
     9     5    10    1
