@<TRIPOS>MOLECULE
*****
 17 16 0 0 0
SMALL
GASTEIGER

@<TRIPOS>ATOM
      1 O          -0.3401   -1.3294   -0.4397 O.3     1  UNL1       -0.1496
      2 N          -0.8427   -0.0288   -0.8501 N.4     1  UNL1       -0.1064
      3 S          -2.0098    0.3734    0.2594 S.3     1  UNL1        0.0064
      4 C          -2.3702    1.9706   -0.5418 C.3     1  UNL1        0.0127
      5 O          -3.2473   -0.3598   -0.4561 O.3     1  UNL1       -0.3245
      6 N           0.9969   -1.5340   -0.9609 N.4     1  UNL1        0.1027
      7 S           1.6747   -2.7139    0.0013 S.O     1  UNL1        0.1276
      8 O           2.8613   -3.3793   -0.6274 O.2     1  UNL1       -0.1445
      9 O           2.3005   -1.7839    1.1436 O.3     1  UNL1       -0.2515
     10 O           0.8654   -2.1198   -2.2890 O.3     1  UNL1       -0.2677
     11 H          -1.1871   -0.2871   -1.7745 H       1  UNL1        0.1713
     12 H          -1.5450    2.6608   -0.3500 H       1  UNL1        0.0367
     13 H          -3.2855    2.3771   -0.1035 H       1  UNL1        0.0367
     14 H          -2.5120    1.8501   -1.6199 H       1  UNL1        0.0367
     15 H          -3.7547   -0.8963    0.2010 H       1  UNL1        0.2278
     16 H           3.2635   -1.9879    1.1435 H       1  UNL1        0.2445
     17 H           1.5955   -1.6590   -2.7396 H       1  UNL1        0.2410
@<TRIPOS>BOND
     1     1     2    1
     2     2     3    1
     3     3     4    1
     4     3     5    1
     5     1     6    1
     6     6     7    1
     7     7     8    2
     8     7     9    1
     9     6    10    1
    10     2    11    1
    11     4    12    1
    12     4    13    1
    13     4    14    1
    14     5    15    1
    15     9    16    1
    16    10    17    1
