@<TRIPOS>MOLECULE
*****
 21 20 0 0 0
SMALL
GASTEIGER

@<TRIPOS>ATOM
      1 N           0.9698   -0.8022   -0.3014 N.3     1  UNL1       -0.1866
      2 N           0.0652   -0.3263   -1.3079 N.3     1  UNL1       -0.1694
      3 C           0.8760    0.0524   -2.4958 C.3     1  UNL1        0.0300
      4 C           1.4696   -1.1651   -3.2193 C.3     1  UNL1       -0.0403
      5 C           2.2487   -0.7443   -4.4574 C.3     1  UNL1       -0.0640
      6 N          -0.5965    0.8705   -0.8110 N.3     1  UNL1       -0.2428
      7 C          -1.7642    0.4832   -0.0119 C.3     1  UNL1        0.0006
      8 S           0.5158   -2.2953    0.2557 S.3     1  UNL1       -0.0816
      9 H           1.0062   -0.1172    0.4565 H       1  UNL1        0.1557
     10 H           1.6749    0.7559   -2.2218 H       1  UNL1        0.0456
     11 H           0.2284    0.5725   -3.2153 H       1  UNL1        0.0456
     12 H           0.6673   -1.8516   -3.5156 H       1  UNL1        0.0276
     13 H           2.1465   -1.7188   -2.5591 H       1  UNL1        0.0276
     14 H           1.6033   -0.2208   -5.1694 H       1  UNL1        0.0230
     15 H           2.6663   -1.6228   -4.9594 H       1  UNL1        0.0230
     16 H           3.0773   -0.0801   -4.1913 H       1  UNL1        0.0230
     17 H          -0.9574    1.4170   -1.5967 H       1  UNL1        0.1418
     18 H          -1.4696    0.0291    0.9393 H       1  UNL1        0.0403
     19 H          -2.4229   -0.2034   -0.5549 H       1  UNL1        0.0403
     20 H          -2.3423    1.3806    0.2308 H       1  UNL1        0.0403
     21 H           0.1980   -2.8456   -0.9263 H       1  UNL1        0.1206
@<TRIPOS>BOND
     1     1     2    1
     2     2     3    1
     3     3     4    1
     4     4     5    1
     5     2     6    1
     6     6     7    1
     7     1     8    1
     8     1     9    1
     9     3    10    1
    10     3    11    1
    11     4    12    1
    12     4    13    1
    13     5    14    1
    14     5    15    1
    15     5    16    1
    16     6    17    1
    17     7    18    1
    18     7    19    1
    19     7    20    1
    20     8    21    1
