@<TRIPOS>MOLECULE
*****
 16 15 0 0 0
SMALL
GASTEIGER

@<TRIPOS>ATOM
      1 N           1.4817   -0.4940    0.4464 N.3     1  UNL1       -0.1835
      2 N           1.0528   -1.1435   -0.7610 N.3     1  UNL1       -0.1251
      3 C           2.0951   -2.0715   -1.2491 C.3     1  UNL1        0.0228
      4 N          -0.1872   -1.8331   -0.5117 N.4     1  UNL1        0.0381
      5 S          -1.1162   -2.1404   -1.8637 S.O     1  UNL1        0.1167
      6 O          -2.4497   -2.7305   -1.5225 O.2     1  UNL1       -0.1454
      7 O          -1.3700   -0.6203   -2.3017 O.3     1  UNL1       -0.2522
      8 O          -0.0504   -3.0734    0.2289 O.3     1  UNL1       -0.2771
      9 S           2.3934    0.8553    0.1712 S.3     1  UNL1       -0.0815
     10 H           1.9235   -1.1493    1.0951 H       1  UNL1        0.1558
     11 H           3.0051   -1.5234   -1.5200 H       1  UNL1        0.0421
     12 H           1.7726   -2.5829   -2.1627 H       1  UNL1        0.0421
     13 H           2.3707   -2.8307   -0.5074 H       1  UNL1        0.0421
     14 H          -0.7697   -0.0841   -1.7333 H       1  UNL1        0.2444
     15 H          -0.8276   -2.9938    0.8135 H       1  UNL1        0.2401
     16 H           1.4784    1.5959   -0.4723 H       1  UNL1        0.1206
@<TRIPOS>BOND
     1     1     2    1
     2     2     3    1
     3     2     4    1
     4     4     5    1
     5     5     6    2
     6     5     7    1
     7     4     8    1
     8     1     9    1
     9     1    10    1
    10     3    11    1
    11     3    12    1
    12     3    13    1
    13     7    14    1
    14     8    15    1
    15     9    16    1
