@<TRIPOS>MOLECULE
*****
 13 12 0 0 0
SMALL
GASTEIGER

@<TRIPOS>ATOM
      1 N           1.1695    0.1798    0.0170 N.4     1  UNL1       -0.2581
      2 C           0.3225    1.0552   -0.6149 C.2     1  UNL1        0.1089
      3 N          -0.6171    0.6977   -1.4195 N.2     1  UNL1       -0.2596
      4 C          -1.3811    1.8218   -1.9809 C.3     1  UNL1        0.1125
      5 S          -3.1436    1.8534   -1.4961 S.3     1  UNL1        0.0124
      6 O          -2.9543    1.6043    0.1409 O.3     1  UNL1       -0.3273
      7 O           0.6501   -1.1187    0.0938 O.3     1  UNL1       -0.2884
      8 H           1.6097    0.4961    0.8788 H       1  UNL1        0.1949
      9 H           0.5529    2.1054   -0.3587 H       1  UNL1        0.1040
     10 H          -1.3441    1.7495   -3.0729 H       1  UNL1        0.0646
     11 H          -0.9567    2.7982   -1.7191 H       1  UNL1        0.0646
     12 H          -2.7903    0.6435    0.3111 H       1  UNL1        0.2274
     13 H           0.1343   -1.1969   -0.7393 H       1  UNL1        0.2442
@<TRIPOS>BOND
     1     1     2    1
     2     2     3    2
     3     3     4    1
     4     4     5    1
     5     5     6    1
     6     1     7    1
     7     1     8    1
     8     2     9    1
     9     4    10    1
    10     4    11    1
    11     6    12    1
    12     7    13    1
