@<TRIPOS>MOLECULE
*****
 25 24 0 0 0
SMALL
GASTEIGER

@<TRIPOS>ATOM
      1 N          -3.1026   -1.6764   -7.7541 N.4     1  UNL1       -0.1384
      2 N          -2.4872   -2.0498   -6.5237 N.3     1  UNL1       -0.2336
      3 C          -3.4049   -1.7577   -5.4131 C.3     1  UNL1        0.0140
      4 C          -2.8050   -2.2458   -4.0935 C.3     1  UNL1       -0.0240
      5 C          -3.4952   -1.6985   -2.8321 C.3     1  UNL1        0.0255
      6 N          -4.8938   -2.1209   -2.6616 N.4     1  UNL1       -0.1911
      7 C          -5.4684   -1.7498   -1.3601 C.3     1  UNL1        0.0215
      8 C          -4.9318   -2.5943   -0.2114 C.3     1  UNL1       -0.0502
      9 O          -5.6982   -1.4210   -3.6570 O.3     1  UNL1       -0.3122
     10 O          -2.8515   -0.2782   -8.0313 O.3     1  UNL1       -0.3003
     11 H          -2.6458   -2.1450   -8.5473 H       1  UNL1        0.1735
     12 H          -1.6118   -1.5395   -6.3874 H       1  UNL1        0.1427
     13 H          -4.3595   -2.2665   -5.5895 H       1  UNL1        0.0439
     14 H          -3.5905   -0.6779   -5.3588 H       1  UNL1        0.0439
     15 H          -1.7503   -1.9439   -4.0394 H       1  UNL1        0.0291
     16 H          -2.8127   -3.3434   -4.0706 H       1  UNL1        0.0291
     17 H          -3.4163   -0.6039   -2.8167 H       1  UNL1        0.0450
     18 H          -2.9029   -2.0626   -1.9847 H       1  UNL1        0.0450
     19 H          -6.5541   -1.9045   -1.3989 H       1  UNL1        0.0447
     20 H          -5.3057   -0.6859   -1.1471 H       1  UNL1        0.0447
     21 H          -5.0764   -3.6620   -0.4066 H       1  UNL1        0.0243
     22 H          -5.4674   -2.3482    0.7117 H       1  UNL1        0.0243
     23 H          -3.8682   -2.4156   -0.0301 H       1  UNL1        0.0243
     24 H          -5.5434   -0.4730   -3.4901 H       1  UNL1        0.2365
     25 H          -3.7670    0.0524   -8.1073 H       1  UNL1        0.2379
@<TRIPOS>BOND
     1     1     2    1
     2     2     3    1
     3     3     4    1
     4     4     5    1
     5     5     6    1
     6     6     7    1
     7     7     8    1
     8     6     9    1
     9     1    10    1
    10     1    11    1
    11     2    12    1
    12     3    13    1
    13     3    14    1
    14     4    15    1
    15     4    16    1
    16     5    17    1
    17     5    18    1
    18     7    19    1
    19     7    20    1
    20     8    21    1
    21     8    22    1
    22     8    23    1
    23     9    24    1
    24    10    25    1
