@<TRIPOS>MOLECULE
*****
 9 8 0 0 0
SMALL
GASTEIGER

@<TRIPOS>ATOM
      1 N           1.0507    0.0111   -0.0758 N.3     1  UNL1       -0.2623
      2 N           0.5750    0.0564   -1.4403 N.3     1  UNL1       -0.2707
      3 C           2.5143   -0.0020   -0.0873 C.3     1  UNL1       -0.0011
      4 H           0.7340   -0.8450    0.3929 H       1  UNL1        0.1400
      5 H           0.8417    0.9405   -1.8855 H       1  UNL1        0.1368
      6 H          -0.4495    0.0609   -1.4630 H       1  UNL1        0.1368
      7 H           2.9159    0.9065   -0.5489 H       1  UNL1        0.0402
      8 H           2.9043   -0.8771   -0.6185 H       1  UNL1        0.0402
      9 H           2.8841   -0.0394    0.9422 H       1  UNL1        0.0402
@<TRIPOS>BOND
     1     1     2    1
     2     1     3    1
     3     1     4    1
     4     2     5    1
     5     2     6    1
     6     3     7    1
     7     3     8    1
     8     3     9    1
