@<TRIPOS>MOLECULE
*****
 17 16 0 0 0
SMALL
GASTEIGER

@<TRIPOS>ATOM
      1 N           1.1730    0.0918   -0.1417 N.4     1  UNL1       -0.2029
      2 C           0.6886    0.2297   -1.5250 C.3     1  UNL1        0.0362
      3 C          -0.8404    0.0465   -1.5923 C.3     1  UNL1        0.0387
      4 N          -1.3485    0.0889   -2.9783 N.4     1  UNL1       -0.1927
      5 C          -2.7989   -0.1112   -2.9916 C.3     1  UNL1        0.0128
      6 O          -1.1624    1.4616   -3.4295 O.3     1  UNL1       -0.3125
      7 O           2.6190    0.2262   -0.2338 O.3     1  UNL1       -0.3150
      8 H           1.0658   -0.8845    0.1478 H       1  UNL1        0.1536
      9 H           1.1768   -0.5174   -2.1632 H       1  UNL1        0.0461
     10 H           0.9607    1.2230   -1.9007 H       1  UNL1        0.0461
     11 H          -1.3300    0.8114   -0.9745 H       1  UNL1        0.0463
     12 H          -1.0899   -0.9311   -1.1593 H       1  UNL1        0.0463
     13 H          -3.0514   -1.1117   -2.6246 H       1  UNL1        0.0414
     14 H          -3.1759   -0.0410   -4.0176 H       1  UNL1        0.0414
     15 H          -3.3281    0.6290   -2.3806 H       1  UNL1        0.0414
     16 H          -0.6397    1.3268   -4.2429 H       1  UNL1        0.2365
     17 H           2.7924    0.9524    0.3971 H       1  UNL1        0.2363
@<TRIPOS>BOND
     1     1     2    1
     2     2     3    1
     3     3     4    1
     4     4     5    1
     5     4     6    1
     6     1     7    1
     7     1     8    1
     8     2     9    1
     9     2    10    1
    10     3    11    1
    11     3    12    1
    12     5    13    1
    13     5    14    1
    14     5    15    1
    15     6    16    1
    16     7    17    1
