@<TRIPOS>MOLECULE
*****
 17 16 0 0 0
SMALL
GASTEIGER

@<TRIPOS>ATOM
      1 N           2.1128   -1.4311   -0.3055 N.4     1  UNL1       -0.1008
      2 N           1.9248   -2.8369   -0.2932 N.4     1  UNL1       -0.0262
      3 S           1.8924   -3.4959   -1.8304 S.3     1  UNL1        0.0295
      4 C           0.8780   -4.9372   -1.3426 C.3     1  UNL1        0.0231
      5 C           0.5287   -5.7778   -2.5573 C.3     1  UNL1       -0.0536
      6 O           0.6364   -2.6709   -2.4034 O.3     1  UNL1       -0.3231
      7 O           3.0643   -3.4498    0.3526 O.3     1  UNL1       -0.2852
      8 O           0.8728   -0.7103   -0.5082 O.3     1  UNL1       -0.2975
      9 H           2.7156   -1.1410   -1.0847 H       1  UNL1        0.1770
     10 H          -0.0317   -4.5995   -0.8347 H       1  UNL1        0.0401
     11 H           1.4656   -5.5395   -0.6419 H       1  UNL1        0.0401
     12 H          -0.0853   -5.2162   -3.2691 H       1  UNL1        0.0238
     13 H          -0.0345   -6.6657   -2.2532 H       1  UNL1        0.0238
     14 H           1.4302   -6.1120   -3.0822 H       1  UNL1        0.0238
     15 H           0.5007   -1.8972   -1.7936 H       1  UNL1        0.2279
     16 H           2.6325   -3.7769    1.1586 H       1  UNL1        0.2393
     17 H           0.8234   -0.2088    0.3288 H       1  UNL1        0.2380
@<TRIPOS>BOND
     1     1     2    1
     2     2     3    1
     3     3     4    1
     4     4     5    1
     5     3     6    1
     6     2     7    1
     7     1     8    1
     8     1     9    1
     9     4    10    1
    10     4    11    1
    11     5    12    1
    12     5    13    1
    13     5    14    1
    14     6    15    1
    15     7    16    1
    16     8    17    1
