@<TRIPOS>MOLECULE
*****
 18 17 0 0 0
SMALL
GASTEIGER

@<TRIPOS>ATOM
      1 O           0.6935    2.5704   -0.3754 O.3     1  UNL1       -0.2374
      2 C           0.5309    1.2709   -0.9436 C.3     1  UNL1        0.0838
      3 C          -0.9536    0.9444   -1.0517 C.3     1  UNL1       -0.0139
      4 C          -1.6755    1.9034   -2.0011 C.3     1  UNL1       -0.0022
      5 N          -3.0820    1.5095   -2.1211 N.3     1  UNL1       -0.3189
      6 C          -3.7977    2.4083   -3.0178 C.3     1  UNL1       -0.0158
      7 O           2.1272    2.8213   -0.3761 O.3     1  UNL1       -0.2501
      8 H           1.0247    0.5395   -0.2947 H       1  UNL1        0.0592
      9 H           1.0049    1.2425   -1.9313 H       1  UNL1        0.0592
     10 H          -1.4115    1.0092   -0.0566 H       1  UNL1        0.0301
     11 H          -1.0663   -0.0880   -1.4041 H       1  UNL1        0.0301
     12 H          -1.1949    1.8691   -2.9860 H       1  UNL1        0.0425
     13 H          -1.6038    2.9300   -1.6225 H       1  UNL1        0.0425
     14 H          -3.5209    1.5387   -1.2010 H       1  UNL1        0.1216
     15 H          -3.3679    2.3891   -4.0245 H       1  UNL1        0.0388
     16 H          -3.7905    3.4374   -2.6441 H       1  UNL1        0.0388
     17 H          -4.8407    2.0870   -3.0991 H       1  UNL1        0.0388
     18 H           2.2287    2.8726    0.5915 H       1  UNL1        0.2531
@<TRIPOS>BOND
     1     1     2    1
     2     2     3    1
     3     3     4    1
     4     4     5    1
     5     5     6    1
     6     1     7    1
     7     2     8    1
     8     2     9    1
     9     3    10    1
    10     3    11    1
    11     4    12    1
    12     4    13    1
    13     5    14    1
    14     6    15    1
    15     6    16    1
    16     6    17    1
    17     7    18    1
