@<TRIPOS>MOLECULE
*****
 19 18 0 0 0
SMALL
GASTEIGER

@<TRIPOS>ATOM
      1 N           0.6885    1.5060   -2.2584 N.4     1  UNL1       -0.1216
      2 N           0.2938    2.7185   -1.6027 N.3     1  UNL1       -0.1489
      3 C           0.7607    3.8558   -2.4101 C.3     1  UNL1        0.0208
      4 N          -1.1344    2.7819   -1.5470 N.3     1  UNL1       -0.1821
      5 S          -1.6851    2.4863   -0.0099 S.3     1  UNL1       -0.0646
      6 C          -3.4708    2.7117   -0.2779 C.3     1  UNL1        0.0065
      7 C          -4.2397    2.2672    0.9534 C.3     1  UNL1       -0.0549
      8 O           0.3985    0.3784   -1.3872 O.3     1  UNL1       -0.2990
      9 H           1.7118    1.4503   -2.3046 H       1  UNL1        0.1751
     10 H           1.8550    3.8531   -2.4781 H       1  UNL1        0.0420
     11 H           0.4790    4.8046   -1.9369 H       1  UNL1        0.0420
     12 H           0.3543    3.8454   -3.4294 H       1  UNL1        0.0420
     13 H          -1.5016    2.1058   -2.2229 H       1  UNL1        0.1560
     14 H          -3.7888    2.1198   -1.1424 H       1  UNL1        0.0387
     15 H          -3.6737    3.7663   -0.4894 H       1  UNL1        0.0387
     16 H          -4.0648    1.2085    1.1743 H       1  UNL1        0.0238
     17 H          -5.3143    2.3965    0.7882 H       1  UNL1        0.0238
     18 H          -3.9660    2.8570    1.8347 H       1  UNL1        0.0238
     19 H          -0.0349    0.8663   -0.6557 H       1  UNL1        0.2380
@<TRIPOS>BOND
     1     1     2    1
     2     2     3    1
     3     2     4    1
     4     4     5    1
     5     5     6    1
     6     6     7    1
     7     1     8    1
     8     1     9    1
     9     3    10    1
    10     3    11    1
    11     3    12    1
    12     4    13    1
    13     6    14    1
    14     6    15    1
    15     7    16    1
    16     7    17    1
    17     7    18    1
    18     8    19    1
