@<TRIPOS>MOLECULE
*****
 15 14 0 0 0
SMALL
GASTEIGER

@<TRIPOS>ATOM
      1 N           1.1238   -0.4810   -1.7080 N.4     1  UNL1       -0.1097
      2 S           0.3539    0.4921   -2.8047 S.3     1  UNL1        0.1566
      3 O           1.2539    0.1306   -4.0800 O.3     1  UNL1       -0.3035
      4 O          -0.8852   -0.4677   -3.1547 O.3     1  UNL1       -0.2423
      5 C          -1.9245    0.1480   -3.8934 C.3     1  UNL1        0.2280
      6 N          -2.7913   -0.8931   -4.3924 N.3     1  UNL1       -0.2819
      7 O          -2.7404    0.9585   -3.0903 O.3     1  UNL1       -0.3543
      8 O           2.5537   -0.2815   -1.8708 O.3     1  UNL1       -0.3017
      9 H           0.9996   -1.4897   -1.8239 H       1  UNL1        0.1712
     10 H           2.1546   -0.0895   -3.7384 H       1  UNL1        0.2300
     11 H          -1.5374    0.7376   -4.7331 H       1  UNL1        0.1107
     12 H          -2.8836   -1.5513   -3.6194 H       1  UNL1        0.1229
     13 H          -2.2375   -1.4043   -5.0791 H       1  UNL1        0.1229
     14 H          -3.6089    0.5417   -3.2046 H       1  UNL1        0.2138
     15 H           2.7764    0.1186   -1.0063 H       1  UNL1        0.2375
@<TRIPOS>BOND
     1     1     2    1
     2     2     3    1
     3     2     4    1
     4     4     5    1
     5     5     6    1
     6     5     7    1
     7     1     8    1
     8     1     9    1
     9     3    10    1
    10     5    11    1
    11     6    12    1
    12     6    13    1
    13     7    14    1
    14     8    15    1
