@<TRIPOS>MOLECULE
*****
 15 14 0 0 0
SMALL
GASTEIGER

@<TRIPOS>ATOM
      1 N           0.7615   -0.1699    0.3058 N.4     1  UNL1       -0.1222
      2 N           0.5430   -1.0287   -0.8047 N.3     1  UNL1       -0.1585
      3 C           0.9419   -2.4075   -0.4391 C.3     1  UNL1        0.0284
      4 C           0.9134   -3.3433   -1.6446 C.3     1  UNL1       -0.0496
      5 N          -0.8561   -1.0101   -1.0773 N.3     1  UNL1       -0.2525
      6 O           0.7790    1.2093   -0.1505 O.3     1  UNL1       -0.2991
      7 H           1.7150   -0.2647    0.6726 H       1  UNL1        0.1751
      8 H           0.3127   -2.8141    0.3649 H       1  UNL1        0.0453
      9 H           1.9740   -2.3981   -0.0638 H       1  UNL1        0.0453
     10 H          -0.1010   -3.4745   -2.0337 H       1  UNL1        0.0243
     11 H           1.2905   -4.3308   -1.3591 H       1  UNL1        0.0243
     12 H           1.5472   -2.9634   -2.4530 H       1  UNL1        0.0243
     13 H          -1.1199   -0.1303   -1.5187 H       1  UNL1        0.1384
     14 H          -1.3547   -0.9984   -0.1841 H       1  UNL1        0.1384
     15 H           0.7548    1.0527   -1.1130 H       1  UNL1        0.2380
@<TRIPOS>BOND
     1     1     2    1
     2     2     3    1
     3     3     4    1
     4     2     5    1
     5     1     6    1
     6     1     7    1
     7     3     8    1
     8     3     9    1
     9     4    10    1
    10     4    11    1
    11     4    12    1
    12     5    13    1
    13     5    14    1
    14     6    15    1
