@<TRIPOS>MOLECULE
*****
 20 19 0 0 0
SMALL
GASTEIGER

@<TRIPOS>ATOM
      1 N          -0.3426   -1.0489    0.3474 N.4     1  UNL1       -0.2042
      2 C           0.2956    0.0244   -0.4236 C.3     1  UNL1        0.0225
      3 C          -0.7069    0.7635   -1.3139 C.3     1  UNL1       -0.0232
      4 C           0.0009    1.8482   -2.1354 C.3     1  UNL1        0.0252
      5 N          -0.9517    2.5948   -2.9741 N.4     1  UNL1       -0.1939
      6 C          -0.2628    3.6531   -3.7143 C.3     1  UNL1        0.0128
      7 O          -1.3974    1.6597   -3.9985 O.3     1  UNL1       -0.3125
      8 O          -1.1770   -0.3843    1.3372 O.3     1  UNL1       -0.3150
      9 H           0.3654   -1.4976    0.9352 H       1  UNL1        0.1535
     10 H           1.0713   -0.4279   -1.0521 H       1  UNL1        0.0448
     11 H           0.8000    0.7251    0.2529 H       1  UNL1        0.0448
     12 H          -1.4903    1.2262   -0.7006 H       1  UNL1        0.0291
     13 H          -1.1996    0.0435   -1.9792 H       1  UNL1        0.0291
     14 H           0.7899    1.3950   -2.7498 H       1  UNL1        0.0450
     15 H           0.4867    2.5459   -1.4416 H       1  UNL1        0.0450
     16 H           0.1504    4.3967   -3.0245 H       1  UNL1        0.0414
     17 H          -0.9719    4.1771   -4.3643 H       1  UNL1        0.0414
     18 H           0.5510    3.2645   -4.3372 H       1  UNL1        0.0414
     19 H          -2.3590    1.6429   -3.8320 H       1  UNL1        0.2365
     20 H          -2.0513   -0.7842    1.1610 H       1  UNL1        0.2363
@<TRIPOS>BOND
     1     1     2    1
     2     2     3    1
     3     3     4    1
     4     4     5    1
     5     5     6    1
     6     5     7    1
     7     1     8    1
     8     1     9    1
     9     2    10    1
    10     2    11    1
    11     3    12    1
    12     3    13    1
    13     4    14    1
    14     4    15    1
    15     6    16    1
    16     6    17    1
    17     6    18    1
    18     7    19    1
    19     8    20    1
