@<TRIPOS>MOLECULE
*****
 10 9 0 0 0
SMALL
GASTEIGER

@<TRIPOS>ATOM
      1 N           0.9813   -0.0996   -0.3457 N.3     1  UNL1       -0.2028
      2 S           0.6983    0.6916   -1.7668 S.3     1  UNL1       -0.0694
      3 C          -1.1087    0.7874   -1.7023 C.3     1  UNL1       -0.0025
      4 N           2.3421    0.0918    0.0281 N.3     1  UNL1       -0.2608
      5 H           0.7508   -1.0975   -0.4148 H       1  UNL1        0.1541
      6 H          -1.4758    1.3003   -2.5952 H       1  UNL1        0.0353
      7 H          -1.4297    1.3478   -0.8198 H       1  UNL1        0.0353
      8 H          -1.5431   -0.2157   -1.6714 H       1  UNL1        0.0353
      9 H           2.4840    1.0718    0.2837 H       1  UNL1        0.1377
     10 H           2.9465   -0.0514   -0.7845 H       1  UNL1        0.1377
@<TRIPOS>BOND
     1     1     2    1
     2     2     3    1
     3     1     4    1
     4     1     5    1
     5     3     6    1
     6     3     7    1
     7     3     8    1
     8     4     9    1
     9     4    10    1
