@<TRIPOS>MOLECULE
*****
 13 12 0 0 0
SMALL
GASTEIGER

@<TRIPOS>ATOM
      1 O           0.9943   -1.8780   -0.4347 O.3     1  UNL1       -0.1306
      2 N           0.4126   -0.6122   -0.8200 N.4     1  UNL1       -0.0794
      3 S          -1.2382   -0.8291   -0.7207 S.3     1  UNL1        0.1499
      4 S          -1.8451    0.9137   -1.5256 S.3     1  UNL1       -0.0064
      5 O          -0.6774    1.9041   -1.0451 O.3     1  UNL1       -0.2691
      6 O          -1.3021    0.6909   -3.0223 O.3     1  UNL1       -0.2691
      7 O          -1.4043   -1.7569   -2.0271 O.3     1  UNL1       -0.3082
      8 O           2.4302   -1.7711   -0.4829 O.3     1  UNL1       -0.2309
      9 H           0.7705   -0.5416   -1.7755 H       1  UNL1        0.1738
     10 H           0.0577    1.3806   -0.6434 H       1  UNL1        0.2428
     11 H          -1.4004   -0.2707   -3.2423 H       1  UNL1        0.2428
     12 H          -1.5839   -2.6868   -1.7409 H       1  UNL1        0.2294
     13 H           2.5269   -1.4299    0.4222 H       1  UNL1        0.2551
@<TRIPOS>BOND
     1     1     2    1
     2     2     3    1
     3     3     4    1
     4     4     5    1
     5     4     6    1
     6     3     7    1
     7     1     8    1
     8     2     9    1
     9     5    10    1
    10     6    11    1
    11     7    12    1
    12     8    13    1
