@<TRIPOS>MOLECULE
*****
 13 12 0 0 0
SMALL
GASTEIGER

@<TRIPOS>ATOM
      1 N           1.0658   -0.0466   -0.1920 N.4     1  UNL1       -0.1876
      2 C           0.5210    0.8267   -1.2202 C.3     1  UNL1        0.0768
      3 C           0.8973    0.3088   -2.6024 C.3     1  UNL1       -0.0345
      4 N          -0.9150    0.8000   -1.0057 N.3     1  UNL1       -0.3141
      5 O           0.5811    0.4680    1.0911 O.3     1  UNL1       -0.3136
      6 H           2.0692    0.1326   -0.1165 H       1  UNL1        0.1553
      7 H           0.8934    1.8498   -1.0962 H       1  UNL1        0.0644
      8 H           0.5387   -0.7140   -2.7676 H       1  UNL1        0.0258
      9 H           1.9851    0.3073   -2.7346 H       1  UNL1        0.0258
     10 H           0.4681    0.9436   -3.3856 H       1  UNL1        0.0258
     11 H          -1.1874   -0.1843   -1.0405 H       1  UNL1        0.1197
     12 H          -1.3746    1.2359   -1.8041 H       1  UNL1        0.1197
     13 H          -0.3169    0.7894    0.8433 H       1  UNL1        0.2363
@<TRIPOS>BOND
     1     1     2    1
     2     2     3    1
     3     2     4    1
     4     1     5    1
     5     1     6    1
     6     2     7    1
     7     3     8    1
     8     3     9    1
     9     3    10    1
    10     4    11    1
    11     4    12    1
    12     5    13    1
