@<TRIPOS>MOLECULE
*****
 16 15 0 0 0
SMALL
GASTEIGER

@<TRIPOS>ATOM
      1 N           1.0602   -0.4378    0.1603 N.4     1  UNL1       -0.1416
      2 S           0.5903   -1.1138   -1.2870 S.3     1  UNL1       -0.0273
      3 C           1.0156   -2.8077   -0.7671 C.3     1  UNL1        0.0040
      4 N          -1.0459   -1.2984   -0.9978 N.4     1  UNL1       -0.1318
      5 C          -1.9066   -0.1148   -0.9535 C.3     1  UNL1        0.0247
      6 O          -1.5553   -2.0450   -2.1410 O.3     1  UNL1       -0.3017
      7 O           1.2247    0.9797   -0.1147 O.3     1  UNL1       -0.3042
      8 H           1.9911   -0.6786    0.5107 H       1  UNL1        0.1681
      9 H           2.1034   -2.8877   -0.6862 H       1  UNL1        0.0359
     10 H           0.6736   -3.5119   -1.5307 H       1  UNL1        0.0359
     11 H           0.5582   -3.0600    0.1945 H       1  UNL1        0.0359
     12 H          -1.6553    0.5186   -0.0970 H       1  UNL1        0.0424
     13 H          -2.9537   -0.4122   -0.8293 H       1  UNL1        0.0424
     14 H          -1.8243    0.4877   -1.8656 H       1  UNL1        0.0424
     15 H          -1.8367   -2.8675   -1.7028 H       1  UNL1        0.2376
     16 H           0.4821    1.3506    0.3962 H       1  UNL1        0.2374
@<TRIPOS>BOND
     1     1     2    1
     2     2     3    1
     3     2     4    1
     4     4     5    1
     5     4     6    1
     6     1     7    1
     7     1     8    1
     8     3     9    1
     9     3    10    1
    10     3    11    1
    11     5    12    1
    12     5    13    1
    13     5    14    1
    14     6    15    1
    15     7    16    1
