@<TRIPOS>MOLECULE
*****
 12 11 0 0 0
SMALL
GASTEIGER

@<TRIPOS>ATOM
      1 N           0.9673   -0.0746   -0.4794 N.3     1  UNL1       -0.1902
      2 S           0.7290    1.2371   -1.4711 S.3     1  UNL1       -0.0056
      3 C           0.6644    0.2482   -2.9964 C.3     1  UNL1        0.0119
      4 O          -0.8677    1.2969   -1.3165 O.3     1  UNL1       -0.3251
      5 N           0.8956    0.3105    0.9001 N.3     1  UNL1       -0.2598
      6 H           1.7900   -0.6657   -0.6538 H       1  UNL1        0.1554
      7 H           1.6687   -0.1169   -3.2266 H       1  UNL1        0.0367
      8 H           0.3241    0.8927   -3.8110 H       1  UNL1        0.0367
      9 H          -0.0228   -0.5963   -2.8913 H       1  UNL1        0.0367
     10 H          -1.1508    0.5198   -0.7739 H       1  UNL1        0.2278
     11 H           0.0928    0.9212    1.0773 H       1  UNL1        0.1377
     12 H           1.7046    0.8855    1.1549 H       1  UNL1        0.1377
@<TRIPOS>BOND
     1     1     2    1
     2     2     3    1
     3     2     4    1
     4     1     5    1
     5     1     6    1
     6     3     7    1
     7     3     8    1
     8     3     9    1
     9     4    10    1
    10     5    11    1
    11     5    12    1
