@<TRIPOS>MOLECULE
*****
 18 17 0 0 0
SMALL
GASTEIGER

@<TRIPOS>ATOM
      1 N           2.7708   -0.3316   -1.3146 N.3     1  UNL1       -0.1692
      2 N           2.3035    0.6458   -2.2453 N.3     1  UNL1       -0.2550
      3 N           2.3531    0.0555   -0.0142 N.4     1  UNL1       -0.1116
      4 C           2.8598   -0.9107    0.9762 C.3     1  UNL1        0.0413
      5 C           2.3271   -0.5991    2.3795 C.3     1  UNL1       -0.0394
      6 C           2.8109   -1.6243    3.3942 C.3     1  UNL1       -0.0640
      7 O           2.9605    1.3321    0.3130 O.3     1  UNL1       -0.2964
      8 H           3.7922   -0.4470   -1.3599 H       1  UNL1        0.1623
      9 H           1.2978    0.7705   -2.0876 H       1  UNL1        0.1382
     10 H           2.3613    0.2724   -3.1969 H       1  UNL1        0.1382
     11 H           3.9580   -0.9197    0.9883 H       1  UNL1        0.0465
     12 H           2.5285   -1.9200    0.6982 H       1  UNL1        0.0465
     13 H           1.2304   -0.5951    2.3702 H       1  UNL1        0.0276
     14 H           2.6526    0.3962    2.7036 H       1  UNL1        0.0276
     15 H           2.4736   -2.6309    3.1272 H       1  UNL1        0.0230
     16 H           2.4189   -1.3875    4.3884 H       1  UNL1        0.0230
     17 H           3.9040   -1.6317    3.4529 H       1  UNL1        0.0230
     18 H           2.9369    1.7072   -0.5904 H       1  UNL1        0.2382
@<TRIPOS>BOND
     1     1     2    1
     2     1     3    1
     3     3     4    1
     4     4     5    1
     5     5     6    1
     6     3     7    1
     7     1     8    1
     8     2     9    1
     9     2    10    1
    10     4    11    1
    11     4    12    1
    12     5    13    1
    13     5    14    1
    14     6    15    1
    15     6    16    1
    16     6    17    1
    17     7    18    1
