@<TRIPOS>MOLECULE
*****
 16 15 0 0 0
SMALL
GASTEIGER

@<TRIPOS>ATOM
      1 O          -0.4698   -2.4735    0.2533 O.3     1  UNL1       -0.1312
      2 N          -0.2781   -1.2957   -0.5601 N.4     1  UNL1       -0.0882
      3 S          -1.7496   -0.5344   -0.6473 S.3     1  UNL1        0.0774
      4 S          -1.3559    0.7134   -2.1531 S.3     1  UNL1       -0.0590
      5 C          -2.9189    1.6263   -2.2744 C.3     1  UNL1       -0.0018
      6 N          -0.5594    1.9296   -1.3328 N.3     1  UNL1       -0.2759
      7 O          -2.5458   -1.6566   -1.4688 O.3     1  UNL1       -0.3160
      8 O           0.6185   -2.5806    1.1907 O.3     1  UNL1       -0.2310
      9 H           0.0445   -1.7175   -1.4322 H       1  UNL1        0.1731
     10 H          -3.6862    0.9547   -2.6689 H       1  UNL1        0.0354
     11 H          -2.7908    2.4597   -2.9707 H       1  UNL1        0.0354
     12 H          -3.2353    2.0061   -1.2990 H       1  UNL1        0.0354
     13 H           0.0306    2.5443   -1.8930 H       1  UNL1        0.1313
     14 H           0.0279    1.6341   -0.5518 H       1  UNL1        0.1313
     15 H          -2.8274   -2.3778   -0.8592 H       1  UNL1        0.2287
     16 H           0.5366   -1.6678    1.5141 H       1  UNL1        0.2551
@<TRIPOS>BOND
     1     1     2    1
     2     2     3    1
     3     3     4    1
     4     4     5    1
     5     4     6    1
     6     3     7    1
     7     1     8    1
     8     2     9    1
     9     5    10    1
    10     5    11    1
    11     5    12    1
    12     6    13    1
    13     6    14    1
    14     7    15    1
    15     8    16    1
