@<TRIPOS>MOLECULE
*****
 19 18 0 0 0
SMALL
GASTEIGER

@<TRIPOS>ATOM
      1 N           1.0378    0.1014   -0.1460 N.3     1  UNL1       -0.3177
      2 C           0.5123    0.8567   -1.2937 C.3     1  UNL1        0.0106
      3 C          -1.0293    0.8015   -1.3373 C.3     1  UNL1        0.0365
      4 N          -1.5761    1.4608   -2.5403 N.4     1  UNL1       -0.1927
      5 C          -3.0369    1.3594   -2.5503 C.3     1  UNL1        0.0128
      6 O          -1.3084    2.8830   -2.3720 O.3     1  UNL1       -0.3125
      7 C           2.4924    0.1704   -0.1029 C.3     1  UNL1       -0.0157
      8 H           0.7512   -0.8739   -0.2288 H       1  UNL1        0.1217
      9 H           0.9151    0.4398   -2.2253 H       1  UNL1        0.0437
     10 H           0.8378    1.9014   -1.2227 H       1  UNL1        0.0437
     11 H          -1.4395    1.2522   -0.4236 H       1  UNL1        0.0462
     12 H          -1.3365   -0.2525   -1.3478 H       1  UNL1        0.0462
     13 H          -3.3483    0.3124   -2.6308 H       1  UNL1        0.0414
     14 H          -3.4413    1.8825   -3.4237 H       1  UNL1        0.0414
     15 H          -3.4917    1.7911   -1.6513 H       1  UNL1        0.0414
     16 H          -0.8331    3.0887   -3.1992 H       1  UNL1        0.2365
     17 H           2.8366    1.2033    0.0118 H       1  UNL1        0.0388
     18 H           2.9421   -0.2597   -1.0037 H       1  UNL1        0.0388
     19 H           2.8584   -0.3958    0.7592 H       1  UNL1        0.0388
@<TRIPOS>BOND
     1     1     2    1
     2     2     3    1
     3     3     4    1
     4     4     5    1
     5     4     6    1
     6     1     7    1
     7     1     8    1
     8     2     9    1
     9     2    10    1
    10     3    11    1
    11     3    12    1
    12     5    13    1
    13     5    14    1
    14     5    15    1
    15     6    16    1
    16     7    17    1
    17     7    18    1
    18     7    19    1
