@<TRIPOS>MOLECULE
*****
 12 11 0 0 0
SMALL
GASTEIGER

@<TRIPOS>ATOM
      1 O          -1.3269   -2.8520   -0.2256 O.3     1  UNL1       -0.1140
      2 N          -0.0286   -2.2434   -0.4211 N.4     1  UNL1       -0.0205
      3 C           0.8792   -3.3688   -0.6222 C.3     1  UNL1        0.1021
      4 N           2.2182   -2.8327   -0.7892 N.3     1  UNL1       -0.3141
      5 O          -0.0720   -1.5203   -1.6848 O.3     1  UNL1       -0.2851
      6 O          -1.9588   -2.2346    0.9134 O.3     1  UNL1       -0.2296
      7 H           0.5953   -3.9654   -1.4974 H       1  UNL1        0.0639
      8 H           0.8699   -4.0229    0.2561 H       1  UNL1        0.0639
      9 H           2.1717   -2.1891   -1.5761 H       1  UNL1        0.1195
     10 H           2.8365   -3.5880   -1.0743 H       1  UNL1        0.1195
     11 H           0.0393   -0.6075   -1.3618 H       1  UNL1        0.2393
     12 H          -1.1204   -1.9761    1.3333 H       1  UNL1        0.2551
@<TRIPOS>BOND
     1     1     2    1
     2     2     3    1
     3     3     4    1
     4     2     5    1
     5     1     6    1
     6     3     7    1
     7     3     8    1
     8     4     9    1
     9     4    10    1
    10     5    11    1
    11     6    12    1
