@<TRIPOS>MOLECULE
*****
 13 12 0 0 0
SMALL
GASTEIGER

@<TRIPOS>ATOM
      1 N           0.4911   -0.0025   -1.3020 N.4     1  UNL1       -0.1276
      2 N          -0.4207    0.8747   -0.6520 N.3     1  UNL1       -0.1643
      3 S          -1.9475    0.2366   -0.5081 S.3     1  UNL1       -0.0036
      4 C          -2.7639    1.8256   -0.1842 C.3     1  UNL1        0.0120
      5 O          -2.3231    0.2422   -2.0686 O.3     1  UNL1       -0.3250
      6 O           0.3606    0.0530   -2.7433 O.3     1  UNL1       -0.2996
      7 H           0.3042   -0.9867   -1.0660 H       1  UNL1        0.1744
      8 H          -0.2938    1.8456   -0.9485 H       1  UNL1        0.1578
      9 H          -2.4748    2.1781    0.8094 H       1  UNL1        0.0367
     10 H          -3.8454    1.6682   -0.2044 H       1  UNL1        0.0367
     11 H          -2.4945    2.5729   -0.9361 H       1  UNL1        0.0367
     12 H          -1.4765    0.1050   -2.5708 H       1  UNL1        0.2278
     13 H           1.2779    0.2722   -2.9986 H       1  UNL1        0.2379
@<TRIPOS>BOND
     1     1     2    1
     2     2     3    1
     3     3     4    1
     4     3     5    1
     5     1     6    1
     6     1     7    1
     7     2     8    1
     8     4     9    1
     9     4    10    1
    10     4    11    1
    11     5    12    1
    12     6    13    1
