@<TRIPOS>MOLECULE
*****
 6 5 0 0 0
SMALL
GASTEIGER

@<TRIPOS>ATOM
      1 O           1.0577   -0.4936   -0.6693 O.3     1  UNL1       -0.1466
      2 N           0.8005    0.9131   -0.8466 N.4     1  UNL1       -0.1825
      3 O           2.1808   -0.6231    0.2125 O.3     1  UNL1       -0.2320
      4 H          -0.1875    0.9540   -0.5898 H       1  UNL1        0.1530
      5 H           0.8176    0.9770   -1.8661 H       1  UNL1        0.1530
      6 H           2.2971    0.3373    0.3218 H       1  UNL1        0.2550
@<TRIPOS>BOND
     1     1     2    1
     2     1     3    1
     3     2     4    1
     4     2     5    1
     5     3     6    1
