@<TRIPOS>MOLECULE
*****
 25 24 0 0 0
SMALL
GASTEIGER

@<TRIPOS>ATOM
      1 N           1.6736   -1.2264   -2.2010 N.4     1  UNL1       -0.1384
      2 N           0.7006   -2.2447   -1.9563 N.3     1  UNL1       -0.2325
      3 C          -0.6240   -1.6522   -1.7021 C.3     1  UNL1        0.0253
      4 C          -1.6562   -2.7515   -1.3744 C.3     1  UNL1        0.0098
      5 N          -3.0149   -2.2520   -1.1233 N.3     1  UNL1       -0.3147
      6 C          -3.7019   -1.8555   -2.3516 C.3     1  UNL1       -0.0020
      7 C          -5.1658   -1.4889   -2.0983 C.3     1  UNL1       -0.0171
      8 C          -5.3415   -0.2089   -1.2922 C.3     1  UNL1        0.0454
      9 O          -6.7230    0.1117   -1.1777 O.3     1  UNL1       -0.3950
     10 O           1.6174   -0.8321   -3.5905 O.3     1  UNL1       -0.3003
     11 H           1.4866   -0.3443   -1.7086 H       1  UNL1        0.1735
     12 H           0.9771   -2.8048   -1.1428 H       1  UNL1        0.1428
     13 H          -0.9459   -1.0943   -2.5886 H       1  UNL1        0.0451
     14 H          -0.5709   -0.9497   -0.8605 H       1  UNL1        0.0451
     15 H          -1.3322   -3.2716   -0.4642 H       1  UNL1        0.0437
     16 H          -1.6745   -3.5114   -2.1656 H       1  UNL1        0.0437
     17 H          -2.9834   -1.4811   -0.4582 H       1  UNL1        0.1220
     18 H          -3.6862   -2.6899   -3.0631 H       1  UNL1        0.0425
     19 H          -3.1969   -1.0073   -2.8267 H       1  UNL1        0.0425
     20 H          -5.6881   -2.3145   -1.5982 H       1  UNL1        0.0300
     21 H          -5.6707   -1.3704   -3.0658 H       1  UNL1        0.0300
     22 H          -4.8334    0.6342   -1.7711 H       1  UNL1        0.0557
     23 H          -4.9434   -0.3181   -0.2793 H       1  UNL1        0.0557
     24 H          -7.0842    0.1979   -2.0763 H       1  UNL1        0.2094
     25 H           1.1923   -1.6265   -3.9638 H       1  UNL1        0.2379
@<TRIPOS>BOND
     1     1     2    1
     2     2     3    1
     3     3     4    1
     4     4     5    1
     5     5     6    1
     6     6     7    1
     7     7     8    1
     8     8     9    1
     9     1    10    1
    10     1    11    1
    11     2    12    1
    12     3    13    1
    13     3    14    1
    14     4    15    1
    15     4    16    1
    16     5    17    1
    17     6    18    1
    18     6    19    1
    19     7    20    1
    20     7    21    1
    21     8    22    1
    22     8    23    1
    23     9    24    1
    24    10    25    1
