@<TRIPOS>MOLECULE
*****
 10 9 0 0 0
SMALL
GASTEIGER

@<TRIPOS>ATOM
      1 O           1.1205   -1.4406   -2.5926 O.3     1  UNL1       -0.1199
      2 N           0.3443   -1.2537   -1.4458 N.am    1  UNL1       -0.1471
      3 C          -0.9998   -1.1617   -1.5800 C.2     1  UNL1        0.3223
      4 O          -1.7675   -1.2631   -0.6303 O.2     1  UNL1       -0.2509
      5 N          -1.4560   -0.9041   -2.8299 N.am    1  UNL1       -0.3117
      6 O           2.3374   -2.1367   -2.2478 O.3     1  UNL1       -0.2282
      7 H           0.7088   -1.6421   -0.5872 H       1  UNL1        0.1870
      8 H          -0.8764   -1.2030   -3.6009 H       1  UNL1        0.1465
      9 H          -2.4578   -0.9665   -2.9488 H       1  UNL1        0.1465
     10 H           2.9241   -1.3656   -2.3429 H       1  UNL1        0.2554
@<TRIPOS>BOND
     1     1     2    1
     2     2     3   am
     3     3     4    2
     4     3     5   am
     5     1     6    1
     6     2     7    1
     7     5     8    1
     8     5     9    1
     9     6    10    1
