@<TRIPOS>MOLECULE
*****
 8 7 0 0 0
SMALL
GASTEIGER

@<TRIPOS>ATOM
      1 O           1.0991    0.3011   -0.0147 O.3     1  UNL1       -0.3057
      2 C           0.5774    0.5103   -1.3253 C.3     1  UNL1        0.0577
      3 N           2.5485    0.1826   -0.1144 N.4     1  UNL1       -0.2151
      4 H          -0.5098    0.5991   -1.2508 H       1  UNL1        0.0544
      5 H           0.8155   -0.3404   -1.9719 H       1  UNL1        0.0544
      6 H           0.9757    1.4364   -1.7520 H       1  UNL1        0.0544
      7 H           2.7044   -0.7131    0.3510 H       1  UNL1        0.1500
      8 H           2.8497    0.8973    0.5502 H       1  UNL1        0.1500
@<TRIPOS>BOND
     1     1     2    1
     2     1     3    1
     3     2     4    1
     4     2     5    1
     5     2     6    1
     6     3     7    1
     7     3     8    1
