@<TRIPOS>MOLECULE
*****
 9 8 0 0 0
SMALL
GASTEIGER

@<TRIPOS>ATOM
      1 O           1.0467    0.7332    0.2900 O.3     1  UNL1       -0.1337
      2 S           0.7351    1.8649   -0.8129 S.3     1  UNL1        0.1585
      3 N           1.0357    0.9969   -2.1817 N.3     1  UNL1       -0.2396
      4 O          -0.8571    1.6941   -0.8276 O.3     1  UNL1       -0.3034
      5 O           0.1284    0.8301    1.4152 O.3     1  UNL1       -0.2356
      6 H           1.7590    1.3562   -2.8011 H       1  UNL1        0.1347
      7 H           0.2231    0.8393   -2.7757 H       1  UNL1        0.1347
      8 H          -1.0936    1.1908   -0.0063 H       1  UNL1        0.2300
      9 H           0.7775    1.2180    2.0302 H       1  UNL1        0.2544
@<TRIPOS>BOND
     1     1     2    1
     2     2     3    1
     3     2     4    1
     4     1     5    1
     5     3     6    1
     6     3     7    1
     7     4     8    1
     8     5     9    1
