@<TRIPOS>MOLECULE
*****
 12 11 0 0 0
SMALL
GASTEIGER

@<TRIPOS>ATOM
      1 N           0.9095    0.0836   -0.2394 N.4     1  UNL1       -0.1763
      2 C           0.4178    1.1534   -1.0995 C.3     1  UNL1        0.1251
      3 C           1.0098    1.0272   -2.4932 C.3     1  UNL1       -0.0234
      4 O          -0.9858    1.0512   -1.1912 O.3     1  UNL1       -0.3757
      5 O           0.3362    0.3171    1.0785 O.3     1  UNL1       -0.3127
      6 H           1.9079    0.2421   -0.0799 H       1  UNL1        0.1564
      7 H           0.6693    2.1338   -0.6792 H       1  UNL1        0.0782
      8 H           0.7351    0.0725   -2.9566 H       1  UNL1        0.0268
      9 H           2.1014    1.1073   -2.4757 H       1  UNL1        0.0268
     10 H           0.6151    1.8139   -3.1457 H       1  UNL1        0.0268
     11 H          -1.2212    0.6698   -0.3297 H       1  UNL1        0.2115
     12 H           0.0647   -0.5855    1.3421 H       1  UNL1        0.2364
@<TRIPOS>BOND
     1     1     2    1
     2     2     3    1
     3     2     4    1
     4     1     5    1
     5     1     6    1
     6     2     7    1
     7     3     8    1
     8     3     9    1
     9     3    10    1
    10     4    11    1
    11     5    12    1
