@<TRIPOS>MOLECULE
*****
 11 10 0 0 0
SMALL
GASTEIGER

@<TRIPOS>ATOM
      1 O           0.3388   -0.3109    0.0416 O.3     1  UNL1       -0.2351
      2 C           0.2417    0.5110   -1.1298 C.3     1  UNL1        0.1056
      3 C          -1.1727    0.4423   -1.6977 C.3     1  UNL1        0.0706
      4 O          -2.0932    1.1145   -0.8396 O.3     1  UNL1       -0.3926
      5 O          -0.2450    0.4562    1.1352 O.3     1  UNL1       -0.2501
      6 H           0.9552    0.1172   -1.8597 H       1  UNL1        0.0614
      7 H           0.5288    1.5382   -0.8791 H       1  UNL1        0.0614
      8 H          -1.5061   -0.5956   -1.7942 H       1  UNL1        0.0581
      9 H          -1.2175    0.9248   -2.6779 H       1  UNL1        0.0581
     10 H          -1.8583    0.8305    0.0684 H       1  UNL1        0.2095
     11 H           0.5769    0.5493    1.6530 H       1  UNL1        0.2531
@<TRIPOS>BOND
     1     1     2    1
     2     2     3    1
     3     3     4    1
     4     1     5    1
     5     2     6    1
     6     2     7    1
     7     3     8    1
     8     3     9    1
     9     4    10    1
    10     5    11    1
