@<TRIPOS>MOLECULE
*****
 10 9 0 0 0
SMALL
GASTEIGER

@<TRIPOS>ATOM
      1 O          -0.8304   -0.0968   -3.1687 O.3     1  UNL1       -0.0920
      2 N           0.2202    0.2566   -2.2403 N.4     1  UNL1        0.1140
      3 S           1.3055    1.1766   -3.1085 S.O     1  UNL1        0.1284
      4 O           2.3789    1.7497   -2.2354 O.2     1  UNL1       -0.1445
      5 O           1.9691   -0.0151   -3.9493 O.3     1  UNL1       -0.2515
      6 O          -0.3497    1.1265   -1.2250 O.3     1  UNL1       -0.2669
      7 O          -0.8043   -1.5246   -3.3991 O.3     1  UNL1       -0.2282
      8 H           1.3675   -0.7915   -3.8647 H       1  UNL1        0.2445
      9 H           0.3798    1.1382   -0.5743 H       1  UNL1        0.2410
     10 H          -1.4045   -1.7434   -2.6639 H       1  UNL1        0.2552
@<TRIPOS>BOND
     1     1     2    1
     2     2     3    1
     3     3     4    2
     4     3     5    1
     5     2     6    1
     6     1     7    1
     7     5     8    1
     8     6     9    1
     9     7    10    1
