@<TRIPOS>MOLECULE
*****
 13 12 0 0 0
SMALL
GASTEIGER

@<TRIPOS>ATOM
      1 N           0.9555    0.5735   -0.9275 N.4     1  UNL1       -0.1902
      2 C           0.5865   -0.7286   -1.4479 C.3     1  UNL1        0.0706
      3 N          -0.6373   -1.0498   -0.7511 N.3     1  UNL1       -0.3052
      4 C          -1.2234   -2.2787   -1.2628 C.3     1  UNL1       -0.0146
      5 O           2.3026    0.8262   -1.4155 O.3     1  UNL1       -0.3138
      6 H           1.1001    0.4487    0.0776 H       1  UNL1        0.1550
      7 H           1.3611   -1.4745   -1.2357 H       1  UNL1        0.0612
      8 H           0.4321   -0.6654   -2.5309 H       1  UNL1        0.0612
      9 H          -1.2780   -0.2733   -0.9053 H       1  UNL1        0.1229
     10 H          -0.5495   -3.1292   -1.1172 H       1  UNL1        0.0388
     11 H          -1.4708   -2.1964   -2.3264 H       1  UNL1        0.0388
     12 H          -2.1483   -2.4952   -0.7194 H       1  UNL1        0.0388
     13 H           2.2126    1.7266   -1.7843 H       1  UNL1        0.2363
@<TRIPOS>BOND
     1     1     2    1
     2     2     3    1
     3     3     4    1
     4     1     5    1
     5     1     6    1
     6     2     7    1
     7     2     8    1
     8     3     9    1
     9     4    10    1
    10     4    11    1
    11     4    12    1
    12     5    13    1
