@<TRIPOS>MOLECULE
*****
 19 18 0 0 0
SMALL
GASTEIGER

@<TRIPOS>ATOM
      1 O           0.2445    0.1574    0.6554 O.3     1  UNL1       -0.3025
      2 C           0.3083    0.8742   -0.5825 C.3     1  UNL1        0.0689
      3 C          -1.0972    1.3527   -0.9267 C.3     1  UNL1       -0.0264
      4 C          -1.1203    2.1370   -2.2370 C.3     1  UNL1       -0.0385
      5 C          -2.5339    2.6069   -2.5737 C.3     1  UNL1       -0.0068
      6 N          -2.5329    3.3439   -3.8312 N.3     1  UNL1       -0.3300
      7 N           1.5899   -0.2889    0.9956 N.4     1  UNL1       -0.2147
      8 H           0.6877    0.2108   -1.3688 H       1  UNL1        0.0580
      9 H           0.9850    1.7303   -0.4742 H       1  UNL1        0.0580
     10 H          -1.4809    1.9723   -0.1064 H       1  UNL1        0.0288
     11 H          -1.7695    0.4878   -0.9893 H       1  UNL1        0.0288
     12 H          -0.7361    1.5052   -3.0478 H       1  UNL1        0.0278
     13 H          -0.4495    3.0017   -2.1563 H       1  UNL1        0.0278
     14 H          -2.9213    3.2497   -1.7756 H       1  UNL1        0.0422
     15 H          -3.2053    1.7463   -2.6649 H       1  UNL1        0.0422
     16 H          -1.9438    4.1713   -3.7460 H       1  UNL1        0.1182
     17 H          -3.4742    3.6837   -4.0250 H       1  UNL1        0.1182
     18 H           1.4413   -1.2932    1.1075 H       1  UNL1        0.1500
     19 H           1.6881    0.0852    1.9408 H       1  UNL1        0.1500
@<TRIPOS>BOND
     1     1     2    1
     2     2     3    1
     3     3     4    1
     4     4     5    1
     5     5     6    1
     6     1     7    1
     7     2     8    1
     8     2     9    1
     9     3    10    1
    10     3    11    1
    11     4    12    1
    12     4    13    1
    13     5    14    1
    14     5    15    1
    15     6    16    1
    16     6    17    1
    17     7    18    1
    18     7    19    1
