@<TRIPOS>MOLECULE
*****
 11 10 0 0 0
SMALL
GASTEIGER

@<TRIPOS>ATOM
      1 O           0.7131   -0.2178   -0.0740 O.3     1  UNL1       -0.2625
      2 N           0.5909    0.4543   -1.3535 N.4     1  UNL1        0.0075
      3 N           0.7434   -0.4704   -2.4025 N.3     1  UNL1       -0.2196
      4 O          -0.7415    1.0007   -1.4174 O.3     1  UNL1       -0.2747
      5 C           1.6190    0.5311    0.7274 C.3     1  UNL1        0.0621
      6 H           1.5542   -1.0613   -2.2107 H       1  UNL1        0.1415
      7 H           0.9818    0.0320   -3.2599 H       1  UNL1        0.1415
      8 H          -1.1829    0.2278   -1.8100 H       1  UNL1        0.2406
      9 H           1.7172    0.0289    1.6938 H       1  UNL1        0.0545
     10 H           1.2365    1.5426    0.8990 H       1  UNL1        0.0545
     11 H           2.6063    0.5731    0.2559 H       1  UNL1        0.0545
@<TRIPOS>BOND
     1     1     2    1
     2     2     3    1
     3     2     4    1
     4     1     5    1
     5     3     6    1
     6     3     7    1
     7     4     8    1
     8     5     9    1
     9     5    10    1
    10     5    11    1
