@<TRIPOS>MOLECULE
*****
 12 11 0 0 0
SMALL
GASTEIGER

@<TRIPOS>ATOM
      1 O          -0.2293   -2.4825    2.7109 O.3     1  UNL1       -0.1736
      2 N           0.3549   -1.4266    1.9061 N.4     1  UNL1       -0.0496
      3 C           1.7260   -1.3162    2.3946 C.3     1  UNL1        0.0422
      4 O           0.4771   -1.9188    0.5435 O.3     1  UNL1       -0.2871
      5 N          -1.6506   -2.2456    2.8641 N.4     1  UNL1       -0.1247
      6 S          -2.0560   -2.0802    4.4583 S.3     1  UNL1       -0.0692
      7 H           1.7350   -0.9901    3.4396 H       1  UNL1        0.0439
      8 H           2.2741   -0.5649    1.8164 H       1  UNL1        0.0439
      9 H           2.2679   -2.2671    2.3243 H       1  UNL1        0.0439
     10 H          -0.1761   -1.3452    0.1018 H       1  UNL1        0.2392
     11 H          -2.0114   -3.1163    2.4788 H       1  UNL1        0.1696
     12 H          -1.5590   -0.8476    4.6540 H       1  UNL1        0.1215
@<TRIPOS>BOND
     1     1     2    1
     2     2     3    1
     3     2     4    1
     4     1     5    1
     5     5     6    1
     6     3     7    1
     7     3     8    1
     8     3     9    1
     9     4    10    1
    10     5    11    1
    11     6    12    1
