@<TRIPOS>MOLECULE
*****
 17 16 0 0 0
SMALL
GASTEIGER

@<TRIPOS>ATOM
      1 N           2.0685    0.2453   -0.1013 N.4     1  UNL1       -0.1260
      2 N           0.8014   -0.2290   -0.5721 N.3     1  UNL1       -0.1639
      3 C           0.9985   -1.4174   -1.4300 C.3     1  UNL1        0.0242
      4 C          -0.2649   -1.7947   -2.1991 C.3     1  UNL1       -0.0500
      5 S          -0.2412   -0.3045    0.7245 S.3     1  UNL1       -0.0639
      6 C          -0.8062    1.4147    0.7574 C.3     1  UNL1       -0.0021
      7 O           2.8660    0.8064   -1.1709 O.3     1  UNL1       -0.2994
      8 H           2.6475   -0.5140    0.2699 H       1  UNL1        0.1747
      9 H           1.3391   -2.2768   -0.8376 H       1  UNL1        0.0448
     10 H           1.7746   -1.2189   -2.1802 H       1  UNL1        0.0448
     11 H          -1.0653   -2.1274   -1.5309 H       1  UNL1        0.0243
     12 H          -0.0485   -2.6176   -2.8887 H       1  UNL1        0.0243
     13 H          -0.6343   -0.9505   -2.7906 H       1  UNL1        0.0243
     14 H          -1.5786    1.5253    1.5232 H       1  UNL1        0.0354
     15 H          -1.2304    1.6991   -0.2096 H       1  UNL1        0.0354
     16 H           0.0211    2.0872    1.0007 H       1  UNL1        0.0354
     17 H           2.8363    1.7516   -0.9349 H       1  UNL1        0.2379
@<TRIPOS>BOND
     1     1     2    1
     2     2     3    1
     3     3     4    1
     4     2     5    1
     5     5     6    1
     6     1     7    1
     7     1     8    1
     8     3     9    1
     9     3    10    1
    10     4    11    1
    11     4    12    1
    12     4    13    1
    13     6    14    1
    14     6    15    1
    15     6    16    1
    16     7    17    1
