@<TRIPOS>MOLECULE
*****
 14 13 0 0 0
SMALL
GASTEIGER

@<TRIPOS>ATOM
      1 N           0.2447   -0.7433   -0.1601 N.4     1  UNL1       -0.1262
      2 N          -0.0415   -0.6137   -1.5549 N.3     1  UNL1       -0.1666
      3 C           0.0865   -1.9227   -2.2275 C.3     1  UNL1        0.0240
      4 C           0.0892   -1.7936   -3.7485 C.3     1  UNL1       -0.0500
      5 S          -1.4318    0.2814   -1.7161 S.3     1  UNL1       -0.0777
      6 O           1.6427   -1.0395    0.0767 O.3     1  UNL1       -0.2994
      7 H          -0.2469   -1.5383    0.2605 H       1  UNL1        0.1746
      8 H          -0.7167   -2.6039   -1.9171 H       1  UNL1        0.0448
      9 H           1.0354   -2.4000   -1.9507 H       1  UNL1        0.0448
     10 H          -0.8737   -1.4390   -4.1290 H       1  UNL1        0.0243
     11 H           0.2848   -2.7697   -4.2048 H       1  UNL1        0.0243
     12 H           0.8707   -1.1040   -4.0850 H       1  UNL1        0.0243
     13 H          -1.0238    1.3698   -1.0468 H       1  UNL1        0.1209
     14 H           1.9424   -0.1933    0.4559 H       1  UNL1        0.2379
@<TRIPOS>BOND
     1     1     2    1
     2     2     3    1
     3     3     4    1
     4     2     5    1
     5     1     6    1
     6     1     7    1
     7     3     8    1
     8     3     9    1
     9     4    10    1
    10     4    11    1
    11     4    12    1
    12     5    13    1
    13     6    14    1
