@<TRIPOS>MOLECULE
*****
 16 15 0 0 0
SMALL
GASTEIGER

@<TRIPOS>ATOM
      1 N           0.7031    0.7240   -0.0672 N.4     1  UNL1       -0.2029
      2 C           0.7079   -0.4352   -0.9793 C.3     1  UNL1        0.0372
      3 C          -0.6979   -0.9515   -1.3523 C.3     1  UNL1        0.0526
      4 N          -0.6411   -2.1072   -2.2666 N.4     1  UNL1       -0.1073
      5 S          -2.0261   -2.9452   -2.6150 S.3     1  UNL1        0.1063
      6 O          -1.3893   -3.8562   -3.8485 O.3     1  UNL1       -0.3143
      7 O          -0.0686   -1.5986   -3.5055 O.3     1  UNL1       -0.2999
      8 O           0.1017    0.2603    1.1724 O.3     1  UNL1       -0.3150
      9 H           0.0211    1.4106   -0.4009 H       1  UNL1        0.1536
     10 H           1.3003   -1.2420   -0.5304 H       1  UNL1        0.0461
     11 H           1.2397   -0.1236   -1.8853 H       1  UNL1        0.0461
     12 H          -1.2874   -0.1397   -1.7993 H       1  UNL1        0.0474
     13 H          -1.2143   -1.2560   -0.4331 H       1  UNL1        0.0474
     14 H          -1.0222   -4.6950   -3.4754 H       1  UNL1        0.2287
     15 H          -0.5530   -2.1740   -4.1337 H       1  UNL1        0.2377
     16 H           0.7955    0.4816    1.8248 H       1  UNL1        0.2363
@<TRIPOS>BOND
     1     1     2    1
     2     2     3    1
     3     3     4    1
     4     4     5    1
     5     5     6    1
     6     4     7    1
     7     1     8    1
     8     1     9    1
     9     2    10    1
    10     2    11    1
    11     3    12    1
    12     3    13    1
    13     6    14    1
    14     7    15    1
    15     8    16    1
