@<TRIPOS>MOLECULE
*****
 15 14 0 0 0
SMALL
GASTEIGER

@<TRIPOS>ATOM
      1 N           1.4021    2.5110   -0.6719 N.4     1  UNL1       -0.1101
      2 N           0.6434    1.3418   -1.0003 N.4     1  UNL1       -0.0729
      3 C           0.9549    0.8865   -2.3728 C.3     1  UNL1        0.1457
      4 C           0.4158    1.8343   -3.4401 C.3     1  UNL1       -0.0217
      5 O           2.3635    0.7558   -2.5170 O.3     1  UNL1       -0.3739
      6 O           1.0606    0.2508   -0.1269 O.3     1  UNL1       -0.2936
      7 O           1.2221    2.8032    0.7395 O.3     1  UNL1       -0.2983
      8 H           0.9711    3.3435   -1.0931 H       1  UNL1        0.1761
      9 H           0.5073   -0.1000   -2.5383 H       1  UNL1        0.0800
     10 H           0.9043    2.8140   -3.4031 H       1  UNL1        0.0269
     11 H          -0.6653    1.9737   -3.3395 H       1  UNL1        0.0269
     12 H           0.6191    1.4293   -4.4379 H       1  UNL1        0.0269
     13 H           2.6931    1.5534   -2.0586 H       1  UNL1        0.2116
     14 H           1.9933    0.1363   -0.4019 H       1  UNL1        0.2384
     15 H           0.6594    2.0390    0.9825 H       1  UNL1        0.2380
@<TRIPOS>BOND
     1     1     2    1
     2     2     3    1
     3     3     4    1
     4     3     5    1
     5     2     6    1
     6     1     7    1
     7     1     8    1
     8     3     9    1
     9     4    10    1
    10     4    11    1
    11     4    12    1
    12     5    13    1
    13     6    14    1
    14     7    15    1
