@<TRIPOS>MOLECULE
*****
 13 12 0 0 0
SMALL
GASTEIGER

@<TRIPOS>ATOM
      1 O          -4.7863   -1.7307   -3.1610 O.3     1  UNL1       -0.1326
      2 N          -3.6106   -0.9138   -3.3595 N.4     1  UNL1       -0.1053
      3 S          -3.0885   -1.0191   -4.9276 S.3     1  UNL1        0.0112
      4 P          -1.3229    0.1294   -4.7559 P.3     1  UNL1        0.1857
      5 S          -0.4510   -0.3157   -6.5772 S.O     1  UNL1        0.0355
      6 O           0.8187    0.4741   -6.4747 O.2     1  UNL1       -0.1614
      7 O           0.0078   -1.8324   -6.3260 O.3     1  UNL1       -0.2647
      8 S          -2.1554    2.0107   -5.2217 S.3     1  UNL1       -0.1159
      9 O          -5.7371   -1.0060   -2.3529 O.3     1  UNL1       -0.2310
     10 H          -2.9604   -1.3906   -2.7333 H       1  UNL1        0.1713
     11 H           0.9931   -1.8239   -6.3723 H       1  UNL1        0.2432
     12 H          -3.0270    2.0557   -4.2046 H       1  UNL1        0.1089
     13 H          -6.0060   -0.3981   -3.0620 H       1  UNL1        0.2551
@<TRIPOS>BOND
     1     1     2    1
     2     2     3    1
     3     3     4    1
     4     4     5    1
     5     5     6    2
     6     5     7    1
     7     4     8    1
     8     1     9    1
     9     2    10    1
    10     7    11    1
    11     8    12    1
    12     9    13    1
