@<TRIPOS>MOLECULE
*****
 14 13 0 0 0
SMALL
GASTEIGER

@<TRIPOS>ATOM
      1 N           0.9629   -0.4941   -2.5367 N.4     1  UNL1       -0.1383
      2 N           0.4339   -1.0557   -1.3404 N.3     1  UNL1       -0.2315
      3 C          -1.0393   -1.0249   -1.3710 C.3     1  UNL1        0.0359
      4 C          -1.6148   -2.0425   -2.3646 C.3     1  UNL1        0.0581
      5 O          -1.0661   -3.3352   -2.1122 O.3     1  UNL1       -0.3937
      6 O           2.4077   -0.5145   -2.4656 O.3     1  UNL1       -0.3003
      7 H           0.7708    0.5121   -2.6305 H       1  UNL1        0.1735
      8 H           0.7657   -0.5406   -0.5201 H       1  UNL1        0.1428
      9 H          -1.4190   -0.0176   -1.5783 H       1  UNL1        0.0461
     10 H          -1.3817   -1.3018   -0.3669 H       1  UNL1        0.0461
     11 H          -1.3873   -1.7688   -3.3999 H       1  UNL1        0.0570
     12 H          -2.7018   -2.1062   -2.2588 H       1  UNL1        0.0570
     13 H          -0.1108   -3.1644   -1.9803 H       1  UNL1        0.2095
     14 H           2.6134   -1.1860   -3.1425 H       1  UNL1        0.2379
@<TRIPOS>BOND
     1     1     2    1
     2     2     3    1
     3     3     4    1
     4     4     5    1
     5     1     6    1
     6     1     7    1
     7     2     8    1
     8     3     9    1
     9     3    10    1
    10     4    11    1
    11     4    12    1
    12     5    13    1
    13     6    14    1
