@<TRIPOS>MOLECULE
*****
 24 24 0 0 0
SMALL
GASTEIGER

@<TRIPOS>ATOM
      1 C           1.0263    0.1690   -0.1146 C.3     1  UNL1       -0.0485
      2 C           2.5582    0.2113   -0.0645 C.3     1  UNL1        0.0189
      3 C           3.1199   -1.1844   -0.4487 C.3     1  UNL1        0.0286
      4 N           4.5728   -1.3532   -0.5921 N.3     1  UNL1       -0.2440
      5 C           5.1715   -0.5566   -1.6614 C.3     1  UNL1        0.0147
      6 C           5.4329    0.9313   -1.4160 C.3     1  UNL1       -0.0263
      7 C           4.3712    1.7135   -0.6495 C.3     1  UNL1       -0.0026
      8 N           2.9901    1.3309   -0.9171 N.3     1  UNL1       -0.3122
      9 N           5.2958   -1.2458    0.6414 N.3     1  UNL1       -0.2678
     10 H           0.6390   -0.6136    0.5469 H       1  UNL1        0.0245
     11 H           0.6611   -0.0345   -1.1277 H       1  UNL1        0.0245
     12 H           0.5960    1.1214    0.2156 H       1  UNL1        0.0245
     13 H           2.8282    0.4254    0.9779 H       1  UNL1        0.0471
     14 H           2.6599   -1.4977   -1.3964 H       1  UNL1        0.0456
     15 H           2.7603   -1.9162    0.2880 H       1  UNL1        0.0456
     16 H           4.5534   -0.6598   -2.5637 H       1  UNL1        0.0441
     17 H           6.1282   -1.0201   -1.9385 H       1  UNL1        0.0441
     18 H           5.5788    1.4049   -2.3960 H       1  UNL1        0.0290
     19 H           6.3864    1.0457   -0.8842 H       1  UNL1        0.0290
     20 H           4.4785    2.7701   -0.9250 H       1  UNL1        0.0424
     21 H           4.5834    1.6887    0.4264 H       1  UNL1        0.0424
     22 H           2.8725    1.0900   -1.9002 H       1  UNL1        0.1222
     23 H           5.1250   -2.0588    1.2373 H       1  UNL1        0.1370
     24 H           5.0337   -0.4248    1.1887 H       1  UNL1        0.1370
@<TRIPOS>BOND
     1     1     2    1
     2     2     3    1
     3     3     4    1
     4     4     5    1
     5     5     6    1
     6     6     7    1
     7     7     8    1
     8     2     8    1
     9     4     9    1
    10     1    10    1
    11     1    11    1
    12     1    12    1
    13     2    13    1
    14     3    14    1
    15     3    15    1
    16     5    16    1
    17     5    17    1
    18     6    18    1
    19     6    19    1
    20     7    20    1
    21     7    21    1
    22     8    22    1
    23     9    23    1
    24     9    24    1
