@<TRIPOS>MOLECULE
*****
 22 21 0 0 0
SMALL
GASTEIGER

@<TRIPOS>ATOM
      1 O          -2.5674   -0.7044    2.2431 O.3     1  UNL1       -0.1301
      2 N          -3.5349   -1.5814    1.6231 N.4     1  UNL1       -0.0739
      3 S          -2.9193   -1.9191    0.1189 S.3     1  UNL1        0.1622
      4 O          -3.6350   -3.3414   -0.0610 O.3     1  UNL1       -0.3033
      5 O          -3.9368   -1.0376   -0.7611 O.3     1  UNL1       -0.2212
      6 P          -3.3478   -0.7133   -2.2328 P.3     1  UNL1        0.2710
      7 N          -4.7110    0.0917   -2.8402 N.3     1  UNL1       -0.2240
      8 C          -4.7318    0.4209   -4.2502 C.3     1  UNL1        0.1098
      9 C          -4.9822   -0.7898   -5.1456 C.3     1  UNL1       -0.0249
     10 O          -5.8158    1.3165   -4.4402 O.3     1  UNL1       -0.3773
     11 O          -2.5598    0.6486   -1.8698 O.3     1  UNL1       -0.3367
     12 O          -3.2659    0.3019    3.0048 O.3     1  UNL1       -0.2309
     13 H          -4.3350   -0.9451    1.6063 H       1  UNL1        0.1745
     14 H          -3.9067   -3.6673    0.8282 H       1  UNL1        0.2300
     15 H          -4.7434    0.9798   -2.3421 H       1  UNL1        0.1333
     16 H          -3.8240    0.9459   -4.5687 H       1  UNL1        0.0765
     17 H          -5.9084   -1.3051   -4.8638 H       1  UNL1        0.0268
     18 H          -4.1580   -1.5086   -5.1115 H       1  UNL1        0.0268
     19 H          -5.1138   -0.4687   -6.1851 H       1  UNL1        0.0268
     20 H          -6.5442    0.9119   -3.9392 H       1  UNL1        0.2114
     21 H          -1.8502    0.4423   -1.2246 H       1  UNL1        0.2182
     22 H          -3.1218   -0.1204    3.8693 H       1  UNL1        0.2551
@<TRIPOS>BOND
     1     1     2    1
     2     2     3    1
     3     3     4    1
     4     3     5    1
     5     5     6    1
     6     6     7    1
     7     7     8    1
     8     8     9    1
     9     8    10    1
    10     6    11    1
    11     1    12    1
    12     2    13    1
    13     4    14    1
    14     7    15    1
    15     8    16    1
    16     9    17    1
    17     9    18    1
    18     9    19    1
    19    10    20    1
    20    11    21    1
    21    12    22    1
