@<TRIPOS>MOLECULE
*****
 13 12 0 0 0
SMALL
GASTEIGER

@<TRIPOS>ATOM
      1 N           1.7505   -2.1317    0.1605 N.4     1  UNL1       -0.1317
      2 O           0.8213   -1.8940   -0.9302 O.3     1  UNL1       -0.3035
      3 S           3.3015   -2.1973   -0.3952 S.3     1  UNL1        0.0428
      4 N           3.6700   -0.6265   -0.7401 N.3     1  UNL1       -0.1667
      5 S           5.2611   -0.4818   -1.2053 S.O     1  UNL1        0.1005
      6 O           5.4458    0.5765   -2.2507 O.2     1  UNL1       -0.2404
      7 C           5.7923    0.2225    0.3805 C.3     1  UNL1        0.0269
      8 H           1.4557   -3.0541    0.4928 H       1  UNL1        0.1690
      9 H           0.3922   -1.0704   -0.6323 H       1  UNL1        0.2374
     10 H           3.0118   -0.2724   -1.4307 H       1  UNL1        0.1523
     11 H           5.6676   -0.5163    1.1767 H       1  UNL1        0.0378
     12 H           5.2157    1.1235    0.6067 H       1  UNL1        0.0378
     13 H           6.8504    0.4839    0.3017 H       1  UNL1        0.0378
@<TRIPOS>BOND
     1     1     2    1
     2     1     3    1
     3     3     4    1
     4     4     5    1
     5     5     6    2
     6     5     7    1
     7     1     8    1
     8     2     9    1
     9     4    10    1
    10     7    11    1
    11     7    12    1
    12     7    13    1
