@<TRIPOS>MOLECULE
*****
 12 11 0 0 0
SMALL
GASTEIGER

@<TRIPOS>ATOM
      1 C           1.0220   -0.0164   -0.0658 C.3     1  UNL1        0.0440
      2 C           0.5095    0.0274   -1.4983 C.3     1  UNL1       -0.0326
      3 C          -1.0074    0.0452   -1.5543 C.3     1  UNL1       -0.0632
      4 O           2.4433   -0.0139   -0.0621 O.3     1  UNL1       -0.3950
      5 H           0.6751   -0.9149    0.4547 H       1  UNL1        0.0557
      6 H           0.6820    0.8585    0.4968 H       1  UNL1        0.0557
      7 H           0.8911   -0.8376   -2.0537 H       1  UNL1        0.0285
      8 H           0.9118    0.9124   -2.0055 H       1  UNL1        0.0285
      9 H          -1.4276   -0.8504   -1.0856 H       1  UNL1        0.0230
     10 H          -1.3484    0.0764   -2.5938 H       1  UNL1        0.0230
     11 H          -1.4087    0.9235   -1.0387 H       1  UNL1        0.0230
     12 H           2.7389   -0.8019   -0.5492 H       1  UNL1        0.2094
@<TRIPOS>BOND
     1     1     2    1
     2     2     3    1
     3     1     4    1
     4     1     5    1
     5     1     6    1
     6     2     7    1
     7     2     8    1
     8     3     9    1
     9     3    10    1
    10     3    11    1
    11     4    12    1
