@<TRIPOS>MOLECULE
*****
 11 10 0 0 0
SMALL
GASTEIGER

@<TRIPOS>ATOM
      1 O           1.2640   -0.6693    0.7653 O.3     1  UNL1       -0.1806
      2 C           0.6048   -0.9737   -0.4668 C.3     1  UNL1        0.3151
      3 S           0.9921   -2.7229   -0.9355 S.O     1  UNL1        0.0549
      4 O          -0.0533   -3.5958   -0.3007 O.2     1  UNL1       -0.1617
      5 O           0.5035   -2.5626   -2.4591 O.3     1  UNL1       -0.2649
      6 O          -0.8062   -0.8118   -0.3046 O.3     1  UNL1       -0.3478
      7 O           1.0402    0.7576    1.0084 O.3     1  UNL1       -0.2459
      8 H           0.9702   -0.3099   -1.2572 H       1  UNL1        0.1206
      9 H          -0.1472   -3.2861   -2.6278 H       1  UNL1        0.2430
     10 H          -1.1216   -1.6958   -0.0329 H       1  UNL1        0.2142
     11 H           0.1317    0.6700    1.3586 H       1  UNL1        0.2532
@<TRIPOS>BOND
     1     1     2    1
     2     2     3    1
     3     3     4    2
     4     3     5    1
     5     2     6    1
     6     1     7    1
     7     2     8    1
     8     5     9    1
     9     6    10    1
    10     7    11    1
