@<TRIPOS>MOLECULE
*****
 10 9 0 0 0
SMALL
GASTEIGER

@<TRIPOS>ATOM
      1 O          -0.6350   -3.0431   -0.6713 O.3     1  UNL1       -0.1299
      2 N          -0.1453   -1.6841   -0.6996 N.4     1  UNL1       -0.0714
      3 S          -1.3684   -0.7800   -1.3401 S.O     1  UNL1        0.1918
      4 O          -2.6725   -1.0142   -0.6448 O.2     1  UNL1       -0.2219
      5 N          -0.7414    0.6930   -0.9498 N.3     1  UNL1       -0.2369
      6 O          -0.8957   -3.4305    0.6942 O.3     1  UNL1       -0.2309
      7 H           0.6865   -1.7944   -1.2732 H       1  UNL1        0.1746
      8 H          -0.0568    0.6633   -0.1988 H       1  UNL1        0.1348
      9 H          -1.4448    1.3598   -0.6395 H       1  UNL1        0.1348
     10 H          -1.7210   -2.9155    0.7704 H       1  UNL1        0.2551
@<TRIPOS>BOND
     1     1     2    1
     2     2     3    1
     3     3     4    2
     4     3     5    1
     5     1     6    1
     6     2     7    1
     7     5     8    1
     8     5     9    1
     9     6    10    1
