@<TRIPOS>MOLECULE
*****
 5 4 0 0 0
SMALL
GASTEIGER

@<TRIPOS>ATOM
      1 N           0.9964    0.0497   -0.0872 N.4     1  UNL1       -0.0368
      2 O           0.6750   -0.1154   -1.4927 O.3     1  UNL1       -0.2870
      3 F           2.3370   -0.1574    0.1219 F       1  UNL1       -0.1084
      4 H           0.4460   -0.6966    0.3454 H       1  UNL1        0.1930
      5 H           0.4716    0.8057   -1.7393 H       1  UNL1        0.2391
@<TRIPOS>BOND
     1     1     2    1
     2     1     3    1
     3     1     4    1
     4     2     5    1
