@<TRIPOS>MOLECULE
*****
 28 27 0 0 0
SMALL
GASTEIGER

@<TRIPOS>ATOM
      1 N          -0.5088    0.7340    0.9005 N.3     1  UNL1       -0.2579
      2 C          -1.2629    0.7786   -0.3666 C.3     1  UNL1        0.0265
      3 C          -0.8893   -0.4181   -1.2628 C.3     1  UNL1        0.0521
      4 N          -1.5419   -0.3541   -2.5829 N.4     1  UNL1       -0.1048
      5 S          -1.1656   -1.4966   -3.7373 S.3     1  UNL1        0.1005
      6 N          -2.0709   -0.8855   -4.9799 N.3     1  UNL1       -0.1390
      7 S          -2.4648   -2.0626   -6.0787 S.O     1  UNL1        0.2063
      8 O          -3.3164   -3.1511   -5.4905 O.2     1  UNL1       -0.2207
      9 N          -3.3822   -1.1090   -7.1064 N.4     1  UNL1       -0.0958
     10 C          -3.5827   -1.5709   -8.4777 C.3     1  UNL1        0.0279
     11 O          -4.7434   -1.0551   -6.5520 O.3     1  UNL1       -0.2990
     12 O           0.2496   -0.8993   -4.1906 O.3     1  UNL1       -0.3120
     13 O          -2.9634   -0.5283   -2.3058 O.3     1  UNL1       -0.2996
     14 N          -0.9025    1.8206    1.7631 N.3     1  UNL1       -0.2704
     15 H           0.4970    0.7612    0.7044 H       1  UNL1        0.1403
     16 H          -1.0398    1.7138   -0.8952 H       1  UNL1        0.0452
     17 H          -2.3386    0.7594   -0.1526 H       1  UNL1        0.0452
     18 H          -1.1395   -1.3588   -0.7547 H       1  UNL1        0.0474
     19 H           0.1986   -0.4124   -1.4090 H       1  UNL1        0.0474
     20 H          -1.7229   -0.0264   -5.3930 H       1  UNL1        0.1549
     21 H          -2.6248   -1.6392   -9.0044 H       1  UNL1        0.0425
     22 H          -4.2061   -0.8605   -9.0312 H       1  UNL1        0.0425
     23 H          -4.0660   -2.5544   -8.5143 H       1  UNL1        0.0425
     24 H          -4.8157   -1.8829   -6.0271 H       1  UNL1        0.2378
     25 H           0.9700   -1.3621   -3.7026 H       1  UNL1        0.2291
     26 H          -3.3518   -0.0751   -3.0787 H       1  UNL1        0.2377
     27 H          -1.8471    1.6770    2.1319 H       1  UNL1        0.1368
     28 H          -0.9116    2.7270    1.2884 H       1  UNL1        0.1368
@<TRIPOS>BOND
     1     1     2    1
     2     2     3    1
     3     3     4    1
     4     4     5    1
     5     5     6    1
     6     6     7    1
     7     7     8    2
     8     7     9    1
     9     9    10    1
    10     9    11    1
    11     5    12    1
    12     4    13    1
    13     1    14    1
    14     1    15    1
    15     2    16    1
    16     2    17    1
    17     3    18    1
    18     3    19    1
    19     6    20    1
    20    10    21    1
    21    10    22    1
    22    10    23    1
    23    11    24    1
    24    12    25    1
    25    13    26    1
    26    14    27    1
    27    14    28    1
