@<TRIPOS>MOLECULE
*****
 10 9 0 0 0
SMALL
GASTEIGER

@<TRIPOS>ATOM
      1 O          -0.2147   -0.7053    1.4848 O.3     1  UNL1       -0.2127
      2 N          -0.1451   -1.4977    0.2699 N.4     1  UNL1       -0.0645
      3 S          -1.6718   -2.0776    0.0329 S.3     1  UNL1        0.0018
      4 O          -1.5738   -2.2883   -1.5467 O.3     1  UNL1       -0.2653
      5 O          -1.3861   -3.6023    0.4079 O.3     1  UNL1       -0.2653
      6 S           0.4302    0.8038    1.2306 S.3     1  UNL1        0.0018
      7 H           0.5295   -2.1994    0.5761 H       1  UNL1        0.1820
      8 H          -0.9369   -1.6232   -1.9037 H       1  UNL1        0.2433
      9 H          -1.8083   -4.1689   -0.2816 H       1  UNL1        0.2433
     10 H          -0.7106    1.4267    0.9035 H       1  UNL1        0.1355
@<TRIPOS>BOND
     1     1     2    1
     2     2     3    1
     3     3     4    1
     4     3     5    1
     5     1     6    1
     6     2     7    1
     7     4     8    1
     8     5     9    1
     9     6    10    1
