@<TRIPOS>MOLECULE
*****
 7 6 0 0 0
SMALL
GASTEIGER

@<TRIPOS>ATOM
      1 N           1.0475    0.1194   -0.2816 N.am    1  UNL1       -0.2001
      2 C           0.2364   -0.2055   -1.3330 C.2     1  UNL1        0.2224
      3 O          -0.9823   -0.0992   -1.3074 O.2     1  UNL1       -0.2775
      4 O           2.3513   -0.4161   -0.3474 O.3     1  UNL1       -0.2954
      5 H           0.6011    0.1388    0.6313 H       1  UNL1        0.1819
      6 H           0.7905   -0.5449   -2.2235 H       1  UNL1        0.1272
      7 H           2.8867    0.3777   -0.5392 H       1  UNL1        0.2414
@<TRIPOS>BOND
     1     1     2   am
     2     2     3    2
     3     1     4    1
     4     1     5    1
     5     2     6    1
     6     4     7    1
