@<TRIPOS>MOLECULE
*****
 22 21 0 0 0
SMALL
GASTEIGER

@<TRIPOS>ATOM
      1 N           1.2929   -0.2122   -0.1630 N.3     1  UNL1       -0.1289
      2 N           0.9345    1.1278    0.1950 N.4     1  UNL1       -0.1089
      3 C          -0.4400    1.1311    0.7334 C.3     1  UNL1        0.0389
      4 C          -0.9092    2.5441    1.0625 C.3     1  UNL1       -0.0487
      5 O           1.7695    1.5647    1.3032 O.3     1  UNL1       -0.2964
      6 N           2.5382   -0.2398   -0.8657 N.4     1  UNL1       -0.0342
      7 S           2.9431   -1.8040   -1.2727 S.3     1  UNL1        0.0258
      8 C           4.7289   -1.4748   -1.3051 C.3     1  UNL1        0.0143
      9 O           2.9805   -2.4165    0.2149 O.3     1  UNL1       -0.3234
     10 O           2.3997    0.4704   -2.1198 O.3     1  UNL1       -0.2858
     11 H           0.5724   -0.6579   -0.7444 H       1  UNL1        0.1660
     12 H          -0.5178    0.4998    1.6281 H       1  UNL1        0.0463
     13 H          -1.1260    0.7201   -0.0182 H       1  UNL1        0.0463
     14 H          -0.3206    2.9889    1.8713 H       1  UNL1        0.0243
     15 H          -1.9556    2.5251    1.3841 H       1  UNL1        0.0243
     16 H          -0.8389    3.1970    0.1859 H       1  UNL1        0.0243
     17 H           2.5616    1.8541    0.8151 H       1  UNL1        0.2382
     18 H           4.9678   -0.8775   -2.1890 H       1  UNL1        0.0368
     19 H           5.2549   -2.4310   -1.3721 H       1  UNL1        0.0368
     20 H           5.0510   -0.9479   -0.4022 H       1  UNL1        0.0368
     21 H           2.5324   -1.7642    0.8133 H       1  UNL1        0.2279
     22 H           1.7512    1.1342   -1.8212 H       1  UNL1        0.2393
@<TRIPOS>BOND
     1     1     2    1
     2     2     3    1
     3     3     4    1
     4     2     5    1
     5     1     6    1
     6     6     7    1
     7     7     8    1
     8     7     9    1
     9     6    10    1
    10     1    11    1
    11     3    12    1
    12     3    13    1
    13     4    14    1
    14     4    15    1
    15     4    16    1
    16     5    17    1
    17     8    18    1
    18     8    19    1
    19     8    20    1
    20     9    21    1
    21    10    22    1
