@<TRIPOS>MOLECULE
*****
 10 9 0 0 0
SMALL
GASTEIGER

@<TRIPOS>ATOM
      1 O           1.4381    0.0385   -0.4104 O.3     1  UNL1       -0.1499
      2 S           0.7558    1.2634   -1.2023 S.3     1  UNL1        0.0808
      3 C           0.9367    0.4337   -2.8070 C.3     1  UNL1        0.0249
      4 O          -0.7830    0.8145   -1.0249 O.3     1  UNL1       -0.3152
      5 O           0.8369   -0.1258    0.9006 O.3     1  UNL1       -0.2368
      6 H           1.9940    0.4278   -3.0832 H       1  UNL1        0.0377
      7 H           0.3713    0.9931   -3.5563 H       1  UNL1        0.0377
      8 H           0.5631   -0.5926   -2.7557 H       1  UNL1        0.0377
      9 H          -1.3273    1.5934   -0.7505 H       1  UNL1        0.2288
     10 H           0.0031   -0.5061    0.5679 H       1  UNL1        0.2543
@<TRIPOS>BOND
     1     1     2    1
     2     2     3    1
     3     2     4    1
     4     1     5    1
     5     3     6    1
     6     3     7    1
     7     3     8    1
     8     4     9    1
     9     5    10    1
