@<TRIPOS>MOLECULE
*****
 12 11 0 0 0
SMALL
GASTEIGER

@<TRIPOS>ATOM
      1 N           0.6069   -0.0076    0.3129 N.3     1  UNL1       -0.1971
      2 N           0.3550   -0.8203   -0.8434 N.3     1  UNL1       -0.1756
      3 C          -0.9297   -1.4771   -0.7591 C.3     1  UNL1        0.3038
      4 O          -1.9397   -0.5112   -0.8124 O.2     1  UNL1       -0.4951
      5 O          -1.0850   -2.3056   -1.8768 O.2     1  UNL1       -0.4951
      6 S           2.0614    0.7571    0.1412 S.3     1  UNL1       -0.0828
      7 H           0.5856   -0.5415    1.1889 H       1  UNL1        0.1543
      8 H           1.0597   -1.5485   -0.9615 H       1  UNL1        0.1487
      9 H          -1.0345   -2.0808    0.1491 H       1  UNL1        0.1410
     10 H          -1.4153    0.2818   -1.0273 H       1  UNL1        0.2887
     11 H          -2.0374   -2.4963   -1.8740 H       1  UNL1        0.2887
     12 H           1.8157    1.3860   -1.0201 H       1  UNL1        0.1206
@<TRIPOS>BOND
     1     1     2    1
     2     2     3    1
     3     3     4    1
     4     3     5    1
     5     1     6    1
     6     1     7    1
     7     2     8    1
     8     3     9    1
     9     4    10    1
    10     5    11    1
    11     6    12    1
