@<TRIPOS>MOLECULE
*****
 5 4 0 0 0
SMALL
GASTEIGER

@<TRIPOS>ATOM
      1 O           1.1628   -0.0178   -0.0898 O.3     1  UNL1       -0.1677
      2 O           0.6356   -0.2796   -1.4121 O.3     1  UNL1       -0.2382
      3 S           2.8220   -0.0248   -0.1253 S.3     1  UNL1        0.0150
      4 H          -0.3003   -0.2288   -1.1559 H       1  UNL1        0.2543
      5 H           3.0384    0.2322    1.1726 H       1  UNL1        0.1366
@<TRIPOS>BOND
     1     1     2    1
     2     1     3    1
     3     2     4    1
     4     3     5    1
