@<TRIPOS>MOLECULE
*****
 23 22 0 0 0
SMALL
GASTEIGER

@<TRIPOS>ATOM
      1 N           0.7293   -0.0182   -0.6259 N.3     1  UNL1       -0.2459
      2 C           0.5010   -0.8876    0.5407 C.3     1  UNL1        0.0265
      3 C          -0.9581   -0.7603    1.0257 C.3     1  UNL1        0.0399
      4 N          -1.2465   -1.6066    2.2055 N.4     1  UNL1       -0.1691
      5 C          -2.6710   -1.4438    2.5736 C.3     1  UNL1        0.1334
      6 S          -3.0383   -2.3710    4.1418 S.3     1  UNL1       -0.0856
      7 O          -1.8620   -1.6518    4.9711 O.3     1  UNL1       -0.2797
      8 O          -4.2032   -1.3728    4.6087 O.3     1  UNL1       -0.2797
      9 O          -1.1434   -2.9791    1.7101 O.3     1  UNL1       -0.3107
     10 N           2.0833   -0.1748   -1.0721 N.3     1  UNL1       -0.2028
     11 S           2.3988    0.9109   -2.2810 S.3     1  UNL1       -0.0830
     12 H           0.5594    0.9527   -0.3570 H       1  UNL1        0.1415
     13 H           1.1817   -0.6110    1.3564 H       1  UNL1        0.0452
     14 H           0.7082   -1.9292    0.2663 H       1  UNL1        0.0452
     15 H          -1.6399   -1.0062    0.2001 H       1  UNL1        0.0463
     16 H          -1.1389    0.2882    1.2964 H       1  UNL1        0.0463
     17 H          -3.3581   -1.8099    1.8031 H       1  UNL1        0.0686
     18 H          -2.8829   -0.3871    2.7733 H       1  UNL1        0.0686
     19 H          -1.0819   -1.5083    4.3700 H       1  UNL1        0.2418
     20 H          -4.0178   -1.0868    5.5360 H       1  UNL1        0.2418
     21 H          -0.6490   -3.4288    2.4224 H       1  UNL1        0.2366
     22 H           2.2384   -1.1260   -1.4251 H       1  UNL1        0.1541
     23 H           2.4792    2.0297   -1.5450 H       1  UNL1        0.1206
@<TRIPOS>BOND
     1     1     2    1
     2     2     3    1
     3     3     4    1
     4     4     5    1
     5     5     6    1
     6     6     7    1
     7     6     8    1
     8     4     9    1
     9     1    10    1
    10    10    11    1
    11     1    12    1
    12     2    13    1
    13     2    14    1
    14     3    15    1
    15     3    16    1
    16     5    17    1
    17     5    18    1
    18     7    19    1
    19     8    20    1
    20     9    21    1
    21    10    22    1
    22    11    23    1
