@<TRIPOS>MOLECULE
*****
 13 12 0 0 0
SMALL
GASTEIGER

@<TRIPOS>ATOM
      1 N           1.0537    0.1594   -0.1534 N.4     1  UNL1       -0.2030
      2 C           0.5321    0.1281   -1.5268 C.3     1  UNL1        0.0336
      3 C          -1.0053    0.0769   -1.5177 C.3     1  UNL1        0.0078
      4 N          -1.5592    0.0502   -2.8726 N.3     1  UNL1       -0.3287
      5 O           2.5016    0.1474   -0.3012 O.3     1  UNL1       -0.3150
      6 H           0.8767   -0.7502    0.2832 H       1  UNL1        0.1536
      7 H           0.9286   -0.7456   -2.0589 H       1  UNL1        0.0460
      8 H           0.8639    1.0272   -2.0601 H       1  UNL1        0.0460
      9 H          -1.4060    0.9484   -0.9871 H       1  UNL1        0.0435
     10 H          -1.3445   -0.8185   -0.9846 H       1  UNL1        0.0435
     11 H          -1.2913    0.9032   -3.3628 H       1  UNL1        0.1183
     12 H          -2.5769    0.0653   -2.8153 H       1  UNL1        0.1183
     13 H           2.7637    0.9320    0.2192 H       1  UNL1        0.2363
@<TRIPOS>BOND
     1     1     2    1
     2     2     3    1
     3     3     4    1
     4     1     5    1
     5     1     6    1
     6     2     7    1
     7     2     8    1
     8     3     9    1
     9     3    10    1
    10     4    11    1
    11     4    12    1
    12     5    13    1
