@<TRIPOS>MOLECULE
*****
 12 11 0 0 0
SMALL
GASTEIGER

@<TRIPOS>ATOM
      1 N           0.7155    0.0067    0.2061 N.4     1  UNL1       -0.1001
      2 N           0.9596   -1.0694   -0.6788 N.4     1  UNL1       -0.0160
      3 S           0.9906   -2.5373    0.1201 S.3     1  UNL1        0.0890
      4 O           0.8044   -3.5160   -1.1376 O.3     1  UNL1       -0.3153
      5 S           2.9802   -2.7506    0.3872 S.3     1  UNL1       -0.0752
      6 O          -0.1499   -1.1363   -1.6118 O.3     1  UNL1       -0.2845
      7 O           0.9082    1.2663   -0.4899 O.3     1  UNL1       -0.2975
      8 H           1.4370    0.0582    0.9338 H       1  UNL1        0.1770
      9 H           0.5186   -2.9586   -1.9014 H       1  UNL1        0.2287
     10 H           3.2009   -1.6169    1.0635 H       1  UNL1        0.1166
     11 H          -0.7702   -0.5620   -1.1204 H       1  UNL1        0.2393
     12 H           1.2942    0.9516   -1.3306 H       1  UNL1        0.2380
@<TRIPOS>BOND
     1     1     2    1
     2     2     3    1
     3     3     4    1
     4     3     5    1
     5     2     6    1
     6     1     7    1
     7     1     8    1
     8     4     9    1
     9     5    10    1
    10     6    11    1
    11     7    12    1
