@<TRIPOS>MOLECULE
*****
 14 13 0 0 0
SMALL
GASTEIGER

@<TRIPOS>ATOM
      1 N           1.3968    1.4684   -0.9047 N.4     1  UNL1       -0.1377
      2 O           0.0884    1.1779   -0.3556 O.3     1  UNL1       -0.3003
      3 N           2.3293    0.4993   -0.4262 N.3     1  UNL1       -0.2239
      4 C           3.5951    0.6357   -1.1411 C.3     1  UNL1        0.0583
      5 S           4.7497   -0.6661   -0.6234 S.3     1  UNL1       -0.1474
      6 C           4.9948   -0.1583    1.0968 C.3     1  UNL1       -0.0168
      7 H           1.5887    2.3928   -0.4952 H       1  UNL1        0.1735
      8 H          -0.4373    1.0607   -1.1681 H       1  UNL1        0.2379
      9 H           1.9885   -0.4493   -0.5943 H       1  UNL1        0.1437
     10 H           4.0557    1.6130   -0.9591 H       1  UNL1        0.0552
     11 H           3.4438    0.5271   -2.2211 H       1  UNL1        0.0552
     12 H           5.7548   -0.7992    1.5519 H       1  UNL1        0.0341
     13 H           4.0701   -0.2661    1.6695 H       1  UNL1        0.0341
     14 H           5.3425    0.8768    1.1457 H       1  UNL1        0.0341
@<TRIPOS>BOND
     1     1     2    1
     2     1     3    1
     3     3     4    1
     4     4     5    1
     5     5     6    1
     6     1     7    1
     7     2     8    1
     8     3     9    1
     9     4    10    1
    10     4    11    1
    11     6    12    1
    12     6    13    1
    13     6    14    1
