@<TRIPOS>MOLECULE
*****
 22 21 0 0 0
SMALL
GASTEIGER

@<TRIPOS>ATOM
      1 N          -0.3544    0.3071   -0.8265 N.4     1  UNL1       -0.2042
      2 C          -1.0769   -0.6629    0.0013 C.3     1  UNL1        0.0213
      3 C          -2.3488   -1.1586   -0.6950 C.3     1  UNL1       -0.0382
      4 C          -2.0616   -1.9594   -1.9685 C.3     1  UNL1       -0.0507
      5 C          -3.3127   -2.3762   -2.7525 C.3     1  UNL1       -0.0406
      6 C          -4.1489   -3.4869   -2.1126 C.3     1  UNL1       -0.0069
      7 N          -4.9380   -3.0196   -0.9807 N.3     1  UNL1       -0.3300
      8 O           0.7579    0.7525   -0.0022 O.3     1  UNL1       -0.3150
      9 H          -0.9194    1.1567   -0.9099 H       1  UNL1        0.1535
     10 H          -1.3559   -0.1997    0.9556 H       1  UNL1        0.0447
     11 H          -0.4258   -1.5164    0.2237 H       1  UNL1        0.0447
     12 H          -2.9996   -0.3068   -0.9283 H       1  UNL1        0.0278
     13 H          -2.8870   -1.7863    0.0223 H       1  UNL1        0.0278
     14 H          -1.4701   -2.8489   -1.7199 H       1  UNL1        0.0266
     15 H          -1.4434   -1.3535   -2.6422 H       1  UNL1        0.0266
     16 H          -2.9759   -2.7453   -3.7302 H       1  UNL1        0.0277
     17 H          -3.9366   -1.4976   -2.9593 H       1  UNL1        0.0277
     18 H          -3.5010   -4.3094   -1.7911 H       1  UNL1        0.0422
     19 H          -4.8350   -3.8905   -2.8659 H       1  UNL1        0.0422
     20 H          -5.5693   -2.2799   -1.2860 H       1  UNL1        0.1182
     21 H          -5.5288   -3.7787   -0.6440 H       1  UNL1        0.1182
     22 H           1.5216    0.5633   -0.5818 H       1  UNL1        0.2363
@<TRIPOS>BOND
     1     1     2    1
     2     2     3    1
     3     3     4    1
     4     4     5    1
     5     5     6    1
     6     6     7    1
     7     1     8    1
     8     1     9    1
     9     2    10    1
    10     2    11    1
    11     3    12    1
    12     3    13    1
    13     4    14    1
    14     4    15    1
    15     5    16    1
    16     5    17    1
    17     6    18    1
    18     6    19    1
    19     7    20    1
    20     7    21    1
    21     8    22    1
