@<TRIPOS>MOLECULE
*****
 9 8 0 0 0
SMALL
GASTEIGER

@<TRIPOS>ATOM
      1 O           0.8166   -0.9526    0.8652 O.3     1  UNL1       -0.1440
      2 N           0.6739   -1.3443   -0.5168 N.4     1  UNL1       -0.1722
      3 C          -0.6799   -0.9383   -0.8725 C.3     1  UNL1        0.0128
      4 O           2.0164   -0.1724    0.9822 O.3     1  UNL1       -0.2318
      5 H           0.7019   -2.3617   -0.4279 H       1  UNL1        0.1564
      6 H          -0.7759    0.1519   -0.8494 H       1  UNL1        0.0412
      7 H          -1.4218   -1.3761   -0.1965 H       1  UNL1        0.0412
      8 H          -0.9073   -1.2733   -1.8889 H       1  UNL1        0.0412
      9 H           2.0841   -0.0036    0.0261 H       1  UNL1        0.2550
@<TRIPOS>BOND
     1     1     2    1
     2     2     3    1
     3     1     4    1
     4     2     5    1
     5     3     6    1
     6     3     7    1
     7     3     8    1
     8     4     9    1
