@<TRIPOS>MOLECULE
*****
 20 19 0 0 0
SMALL
GASTEIGER

@<TRIPOS>ATOM
      1 N           0.8997    0.3121   -0.0082 N.4     1  UNL1       -0.2029
      2 C           0.6130   -0.4418   -1.2428 C.3     1  UNL1        0.0372
      3 C          -0.8959   -0.7165   -1.3748 C.3     1  UNL1        0.0518
      4 N          -1.2732   -1.3880   -2.6359 N.4     1  UNL1       -0.1188
      5 S          -0.7858   -2.9602   -2.9268 S.3     1  UNL1        0.0073
      6 C          -1.4674   -3.0311   -4.6151 C.3     1  UNL1        0.0129
      7 O           0.6996   -2.6612   -3.4615 O.3     1  UNL1       -0.3244
      8 O          -2.7290   -1.4416   -2.5586 O.3     1  UNL1       -0.3006
      9 O           2.3507    0.4068    0.0477 O.3     1  UNL1       -0.3150
     10 H           0.6906   -0.2844    0.7974 H       1  UNL1        0.1536
     11 H           1.1696   -1.3850   -1.2176 H       1  UNL1        0.0461
     12 H           0.9582    0.1386   -2.1066 H       1  UNL1        0.0461
     13 H          -1.4205    0.2473   -1.3313 H       1  UNL1        0.0474
     14 H          -1.2390   -1.3069   -0.5141 H       1  UNL1        0.0474
     15 H          -2.5529   -3.1476   -4.5624 H       1  UNL1        0.0367
     16 H          -1.0474   -3.9067   -5.1178 H       1  UNL1        0.0367
     17 H          -1.2133   -2.1313   -5.1822 H       1  UNL1        0.0367
     18 H           1.3648   -3.1624   -2.9328 H       1  UNL1        0.2279
     19 H          -2.9637   -0.8772   -3.3175 H       1  UNL1        0.2377
     20 H           2.4850    1.3722    0.1211 H       1  UNL1        0.2363
@<TRIPOS>BOND
     1     1     2    1
     2     2     3    1
     3     3     4    1
     4     4     5    1
     5     5     6    1
     6     5     7    1
     7     4     8    1
     8     1     9    1
     9     1    10    1
    10     2    11    1
    11     2    12    1
    12     3    13    1
    13     3    14    1
    14     6    15    1
    15     6    16    1
    16     6    17    1
    17     7    18    1
    18     8    19    1
    19     9    20    1
