@<TRIPOS>MOLECULE
*****
 12 11 0 0 0
SMALL
GASTEIGER

@<TRIPOS>ATOM
      1 N           0.8718   -0.4442   -0.1041 N.4     1  UNL1       -0.1225
      2 N           0.6174    0.4079   -1.2066 N.3     1  UNL1       -0.1613
      3 C           1.0484   -0.2511   -2.4503 C.3     1  UNL1        0.0197
      4 N          -0.7883    0.6206   -1.2733 N.3     1  UNL1       -0.2527
      5 O           0.8798    0.3469    1.1142 O.3     1  UNL1       -0.2991
      6 H           1.8359   -0.7953   -0.1138 H       1  UNL1        0.1751
      7 H           2.1321   -0.4177   -2.4379 H       1  UNL1        0.0420
      8 H           0.8384    0.3900   -3.3146 H       1  UNL1        0.0420
      9 H           0.5542   -1.2179   -2.6099 H       1  UNL1        0.0420
     10 H          -1.1057    1.0969   -0.4292 H       1  UNL1        0.1384
     11 H          -1.2597   -0.2862   -1.2251 H       1  UNL1        0.1384
     12 H           0.8322    1.2381    0.7187 H       1  UNL1        0.2380
@<TRIPOS>BOND
     1     1     2    1
     2     2     3    1
     3     2     4    1
     4     1     5    1
     5     1     6    1
     6     3     7    1
     7     3     8    1
     8     3     9    1
     9     4    10    1
    10     4    11    1
    11     5    12    1
