@<TRIPOS>MOLECULE
*****
 13 12 0 0 0
SMALL
GASTEIGER

@<TRIPOS>ATOM
      1 O           1.3275   -1.5130   -1.3866 O.3     1  UNL1       -0.1327
      2 N           0.2134   -0.7456   -1.8971 N.4     1  UNL1       -0.1086
      3 S          -1.0464   -1.0189   -0.8570 S.3     1  UNL1       -0.0539
      4 C          -2.1611    0.1561   -1.6949 C.3     1  UNL1        0.0018
      5 N          -1.6755   -2.3443   -1.6365 N.3     1  UNL1       -0.2727
      6 O           2.4540   -0.6360   -1.1989 O.3     1  UNL1       -0.2310
      7 H           0.1307   -1.1480   -2.8312 H       1  UNL1        0.1713
      8 H          -1.8380    1.1740   -1.4597 H       1  UNL1        0.0358
      9 H          -3.1752    0.0121   -1.3110 H       1  UNL1        0.0358
     10 H          -2.1593    0.0133   -2.7800 H       1  UNL1        0.0358
     11 H          -2.5946   -2.6636   -1.3262 H       1  UNL1        0.1317
     12 H          -1.0959   -3.1849   -1.6262 H       1  UNL1        0.1317
     13 H           1.9796   -0.0309   -0.6041 H       1  UNL1        0.2551
@<TRIPOS>BOND
     1     1     2    1
     2     2     3    1
     3     3     4    1
     4     3     5    1
     5     1     6    1
     6     2     7    1
     7     4     8    1
     8     4     9    1
     9     4    10    1
    10     5    11    1
    11     5    12    1
    12     6    13    1
