@<TRIPOS>MOLECULE
*****
 11 10 0 0 0
SMALL
GASTEIGER

@<TRIPOS>ATOM
      1 N           1.1324   -0.1469   -0.1779 N.3     1  UNL1       -0.2662
      2 C           0.5396   -0.7223   -1.3845 C.3     1  UNL1        0.0034
      3 C          -0.9759   -0.6054   -1.3278 C.3     1  UNL1       -0.0517
      4 S           2.7803   -0.0956    0.0046 S.3     1  UNL1       -0.0983
      5 H           0.7041   -0.5785    0.6425 H       1  UNL1        0.1348
      6 H           0.8166   -1.7788   -1.4792 H       1  UNL1        0.0430
      7 H           0.9040   -0.1960   -2.2745 H       1  UNL1        0.0430
      8 H          -1.3848   -1.1493   -0.4696 H       1  UNL1        0.0242
      9 H          -1.4204   -1.0260   -2.2355 H       1  UNL1        0.0242
     10 H          -1.2896    0.4413   -1.2524 H       1  UNL1        0.0242
     11 H           3.0779    0.7658   -0.9835 H       1  UNL1        0.1193
@<TRIPOS>BOND
     1     1     2    1
     2     2     3    1
     3     1     4    1
     4     1     5    1
     5     2     6    1
     6     2     7    1
     7     3     8    1
     8     3     9    1
     9     3    10    1
    10     4    11    1
