@<TRIPOS>MOLECULE
*****
 9 8 0 0 0
SMALL
GASTEIGER

@<TRIPOS>ATOM
      1 N           0.5874   -0.2877   -0.0072 N.3     1  UNL1       -0.1520
      2 N           0.3555    0.9064   -0.7185 N.4     1  UNL1        0.0178
      3 O           1.3402    1.0673   -1.7671 O.3     1  UNL1       -0.2740
      4 O          -0.9323    0.8394   -1.3703 O.3     1  UNL1       -0.2740
      5 S           1.6898   -0.0700    1.2048 S.3     1  UNL1       -0.0785
      6 H           0.8773   -1.0186   -0.6601 H       1  UNL1        0.1589
      7 H           1.8285    1.8319   -1.4172 H       1  UNL1        0.2406
      8 H          -1.4216    1.4893   -0.8387 H       1  UNL1        0.2406
      9 H           0.9908    0.8060    1.9430 H       1  UNL1        0.1207
@<TRIPOS>BOND
     1     1     2    1
     2     2     3    1
     3     2     4    1
     4     1     5    1
     5     1     6    1
     6     3     7    1
     7     4     8    1
     8     5     9    1
