@<TRIPOS>MOLECULE
*****
 12 11 0 0 0
SMALL
GASTEIGER

@<TRIPOS>ATOM
      1 N           0.8924   -0.4749   -0.1087 N.4     1  UNL1       -0.1438
      2 S           0.4405   -0.6749   -1.6922 S.3     1  UNL1       -0.0569
      3 C           0.7564   -2.4697   -1.6883 C.3     1  UNL1        0.0017
      4 N          -1.1847   -0.8461   -1.4148 N.3     1  UNL1       -0.2728
      5 O           0.9645    0.9638    0.0861 O.3     1  UNL1       -0.3043
      6 H           1.8446   -0.7558    0.1456 H       1  UNL1        0.1680
      7 H           1.8375   -2.6344   -1.6780 H       1  UNL1        0.0358
      8 H           0.3450   -2.8991   -2.6061 H       1  UNL1        0.0358
      9 H           0.3039   -2.9598   -0.8207 H       1  UNL1        0.0358
     10 H          -1.7998   -0.1860   -1.8885 H       1  UNL1        0.1317
     11 H          -1.4722   -0.8416   -0.4381 H       1  UNL1        0.1317
     12 H           0.1967    1.1136    0.6668 H       1  UNL1        0.2374
@<TRIPOS>BOND
     1     1     2    1
     2     2     3    1
     3     2     4    1
     4     1     5    1
     5     1     6    1
     6     3     7    1
     7     3     8    1
     8     3     9    1
     9     4    10    1
    10     4    11    1
    11     5    12    1
