MODEL 1
REMARK VINA RESULT:     -8.04      0.000      0.000
REMARK  3 active torsions:
REMARK  status: ('A' for Active; 'I' for Inactive)
REMARK       I    between atoms: N1_2  and  C2_3 
REMARK    1  A    between atoms: C2_3  and  C3_5 
REMARK    2  A    between atoms: C8_10  and  N2_11 
REMARK    3  A    between atoms: N2_11  and  C9_12 
ROOT
HETATM    1  C3  UNL     1     -11.844  12.898  67.299  1.00  0.00     0.058 A 
HETATM    2  C4  UNL     1     -11.402  11.618  66.914  1.00  0.00     0.019 A 
HETATM    3  C5  UNL     1     -11.209  10.610  67.858  1.00  0.00     0.001 A 
HETATM    4  C6  UNL     1     -11.443  10.872  69.201  1.00  0.00     0.002 A 
HETATM    5  C7  UNL     1     -11.873  12.140  69.600  1.00  0.00     0.030 A 
HETATM    6  C8  UNL     1     -12.103  13.165  68.663  1.00  0.00     0.048 A 
ENDROOT
BRANCH   6   7
HETATM    7  N2  UNL     1     -12.452  14.471  69.108  1.00  0.00    -0.353 N 
HETATM    8  H9  UNL     1     -11.857  15.156  68.626  1.00  0.00     0.166 HD
BRANCH   7   9
HETATM    9  C9  UNL     1     -12.691  14.900  70.438  1.00  0.00     0.071 A 
HETATM   10  C10 UNL     1     -13.970  14.888  71.006  1.00  0.00     0.033 A 
HETATM   11  C11 UNL     1     -14.180  15.378  72.299  1.00  0.00     0.002 A 
HETATM   12  C12 UNL     1     -13.118  15.905  73.035  1.00  0.00     0.003 A 
HETATM   13  C13 UNL     1     -11.844  15.954  72.473  1.00  0.00     0.044 A 
HETATM   14  C14 UNL     1     -11.645  15.465  71.185  1.00  0.00     0.142 A 
HETATM   15  F1  UNL     1     -10.416  15.526  70.649  1.00  0.00    -0.204 F 
ENDBRANCH   7   9
ENDBRANCH   6   7
BRANCH   1  16
HETATM   16  C2  UNL     1     -12.022  13.893  66.192  1.00  0.00     0.253 C 
HETATM   17  N1  UNL     1     -10.946  14.697  65.891  1.00  0.00    -0.361 N 
HETATM   18  C1  UNL     1     -11.036  15.768  64.935  1.00  0.00     0.149 C 
HETATM   19  H4  UNL     1     -10.128  14.638  66.493  1.00  0.00     0.162 HD
HETATM   20  O1  UNL     1     -13.099  13.987  65.610  1.00  0.00    -0.268 OA
ENDBRANCH   1  16
TORSDOF 3
ENDMDL
