MODEL 1
REMARK VINA RESULT:     -7.24      0.000      0.000
REMARK  4 active torsions:
REMARK  status: ('A' for Active; 'I' for Inactive)
REMARK    1  A    between atoms: O1_2  and  C2_3 
REMARK    2  A    between atoms: C7_8  and  N1_9 
REMARK    3  A    between atoms: N1_9  and  C8_10 
REMARK    4  A    between atoms: C8_10  and  C9_11 
ROOT
HETATM    1  N1  UNL     1     -12.018  12.321  67.282  1.00  0.00    -0.286 NA
HETATM    2  H8  UNL     1     -12.082  11.488  66.692  1.00  0.00     0.128 HD
ENDROOT
BRANCH   1   3
HETATM    3  C7  UNL     1     -11.693  13.411  66.450  1.00  0.00     0.042 A 
HETATM    4  C2  UNL     1     -12.321  13.522  65.193  1.00  0.00     0.089 A 
HETATM    5  C3  UNL     1     -12.063  14.590  64.331  1.00  0.00     0.038 A 
HETATM    6  C4  UNL     1     -11.214  15.612  64.744  1.00  0.00     0.003 A 
HETATM    7  C5  UNL     1     -10.630  15.557  66.009  1.00  0.00     0.002 A 
HETATM    8  C6  UNL     1     -10.876  14.470  66.858  1.00  0.00     0.026 A 
BRANCH   4   9
HETATM    9  O1  UNL     1     -13.151  12.508  64.767  1.00  0.00    -0.354 OA
HETATM   10  C1  UNL     1     -12.647  11.964  63.545  1.00  0.00     0.210 C 
ENDBRANCH   4   9
ENDBRANCH   1   3
BRANCH   1  11
HETATM   11  C8  UNL     1     -11.169  12.081  68.447  1.00  0.00     0.134 C 
BRANCH  11  12
HETATM   12  C9  UNL     1     -11.959  12.282  69.717  1.00  0.00    -0.006 A 
HETATM   13  C10 UNL     1     -12.253  13.567  70.201  1.00  0.00     0.011 A 
HETATM   14  C11 UNL     1     -12.958  13.733  71.396  1.00  0.00     0.001 A 
HETATM   15  C12 UNL     1     -13.368  12.619  72.128  1.00  0.00     0.003 A 
HETATM   16  C13 UNL     1     -13.067  11.339  71.667  1.00  0.00     0.043 A 
HETATM   17  C14 UNL     1     -12.364  11.181  70.475  1.00  0.00     0.123 A 
HETATM   18  F1  UNL     1     -12.073   9.939  70.061  1.00  0.00    -0.206 F 
ENDBRANCH  11  12
ENDBRANCH   1  11
TORSDOF 4
ENDMDL
