@<TRIPOS>MOLECULE
JJLVKHIHNRBTRY-IISUXDFHSA-N
   71    76     1     1     1
SMALL
USER_CHARGES


@<TRIPOS>ATOM
      1 C05       -12.1490   14.0970   69.7190 C.3        0 <0>       -0.378
      2 C06       -11.6060   14.5460   68.3340 C.2        0 <0>       -0.371
      3 C08       -12.0040   15.4120   65.9580 C.3        0 <0>       -0.404
      4 N07       -12.5410   14.9950   67.2680 N.am       0 <0>       -0.286
      5 O28       -10.4380   14.5220   68.1180 O.2        0 <0>       -0.211
      6 H07       -13.5362   15.0144   67.4393 H          0 <0>        0.000
      7 H081      -12.8253   15.7094   65.3061 H          0 <0>        0.000
      8 H051      -11.3163   13.8065   70.3595 H          0 <0>        0.000
      9 H053      -12.6923   14.9214   70.1809 H          0 <0>        0.000
     10 C1        -11.4838   13.0487   63.3010 C.2        0 <0>       -0.510
     11 C2        -11.2824   14.2616   63.8183 C.2        0 <0>       -0.449
     12 C3        -11.2413   14.2368   65.3187 C.3        0 <0>       -0.444
     13 C4        -11.9120   12.8693   65.6086 C.3        0 <0>       -0.473
     14 C5        -11.6133   11.9954   64.3629 C.3        0 <0>       -0.484
     15 H1        -11.5372   12.8417   62.2321 H          0 <0>        0.000
     16 H2        -11.1517   15.1656   63.2232 H          0 <0>        0.000
     17 H4        -10.1903   14.2524   65.6484 H          0 <0>        0.000
     18 H5        -13.0033   13.0233   65.6720 H          0 <0>        0.000
     19 H6        -11.5682   12.4107   66.5499 H          0 <0>        0.000
     20 C1         -8.7631   20.2375   67.1199 C.2        0 <0>       -0.503
     21 N2         -7.8063   19.6657   66.3359 N.am       0 <0>       -0.357
     22 C3         -7.9722   18.4632   65.7372 C.2        0 <0>       -0.293
     23 C2         -9.2610   17.8282   65.9999 C.2        0 <0>       -0.347
     24 C3        -10.1905   18.4014   66.7714 C.2        0 <0>       -0.470
     25 N6         -9.9477   19.6027   67.3326 N.am       0 <0>       -0.488
     26 N3        -11.2451   17.6207   66.8391 N.pl3      0 <0>       -0.320
     27 C5        -11.0383   16.5476   66.1335 C.2        0 <0>       -0.424
     28 N4         -9.8949   16.5999   65.6121 N.2        0 <0>       -0.352
     29 O10        -7.1409   17.9181   65.0290 O.2        0 <0>       -0.097
     30 O11        -8.5578   21.3259   67.6354 O.2        0 <0>       -0.377
     31 H1         -6.9406   20.1508   66.1926 H          0 <0>        0.000
     32 H2        -10.6522   20.0218   67.9087 H          0 <0>        0.000
     33 H3        -12.1042   17.8278   67.3699 H          0 <0>        0.000
     34 C         -13.0256   12.8970   69.5076 C.2        0 <0>       -0.124
     35 O         -13.9725   12.9972   68.7426 O.2        0 <0>        0.122
     36 O         -12.7294   11.7680   70.1691 O.3        0 <0>       -0.310
     37 C5        -13.6278   10.6738   69.9005 C.3        0 <0>       -0.224
     38 H1        -14.6585   10.9197   70.2012 H          0 <0>        0.000
     39 H2        -13.2905    9.8096   70.4915 H          0 <0>        0.000
     40 H3        -13.6098   10.3944   68.8350 H          0 <0>        0.000
     41 C1         -9.9423   10.7695   65.6115 C.2        0 <0>       -0.258
     42 N2        -10.3497   11.2957   64.4899 N.pl3      0 <0>       -0.353
     43 C2         -9.5245   11.1396   63.4922 C.2        0 <0>       -0.388
     44 C3         -7.2289    9.9692   63.3615 C.2        0 <0>       -0.152
     45 C4         -6.3806    9.3018   64.1567 C.2        0 <0>       -0.084
     46 C5         -6.6637    9.0511   65.5922 C.2        0 <0>       -0.068
     47 C6         -7.7866    9.4752   66.1893 C.2        0 <0>       -0.100
     48 C7         -8.7547   10.2129   65.3679 C.2        0 <0>       -0.190
     49 C8         -8.4771   10.4587   63.9603 C.2        0 <0>       -0.230
     50 H10       -10.4627   10.7766   66.5692 H          0 <0>        0.000
     51 H4         -7.0158   10.1505   62.3079 H          0 <0>        0.000
     52 H6         -5.9264    8.5004   66.1775 H          0 <0>        0.000
     53 H7         -7.9892    9.2882   67.2440 H          0 <0>        0.000
     54 H17        -9.6543   11.4925   62.4690 H          0 <0>        0.000
     55 F1         -6.0151    7.8398   61.7688 F          0 <0>       -0.040
     56 F2         -4.0310    9.5963   65.6941 F          0 <0>       -0.031
     57 C1         -5.0473    8.7288   63.7392 C.ar       0 <0>       -0.044
     58 C2         -4.9378    8.0162   62.5449 C.ar       0 <0>       -0.031
     59 C3         -3.9255    8.9117   64.5475 C.ar       0 <0>       -0.030
     60 C4         -3.7064    7.4868   62.1591 C.ar       0 <0>       -0.017
     61 C5         -2.6941    8.3824   64.1617 C.ar       0 <0>       -0.012
     62 C6         -2.5845    7.6699   62.9675 C.ar       0 <0>       -0.009
     63 H2         -3.6215    6.9320   61.2293 H          0 <0>        0.000
     64 H3         -1.8208    8.5253   64.7912 H          0 <0>        0.000
     65 H4         -1.6256    7.2578   62.6671 H          0 <0>        0.000
     66 C         -12.3737    9.8723   63.2779 C.2        0 <0>        0.092
     67 O         -13.2130    9.1618   62.7480 O.2        0 <0>        0.141
     68 C3        -12.7967   11.0374   64.1319 C.3        0 <0>       -0.269
     69 H1        -11.3190    9.6371   63.1342 H          0 <0>        0.000
     70 H2        -13.1523   10.6684   65.1055 H          0 <0>        0.000
     71 H4        -13.6099   11.5917   63.6394 H          0 <0>        0.000
@<TRIPOS>BOND
     1    1    2 1  
     2    2    4 am 
     3    2    5 2  
     4    3    4 1  
     5    6    4 1  
     6    7    3 1  
     7    8    1 1  
     8    9    1 1  
     9   10   11 2  
    10   10   14 1  
    11   11   12 1  
    12   12   13 1  
    13   13   14 1  
    14   10   15 1  
    15   11   16 1  
    16   12   17 1  
    17   13   18 1  
    18   13   19 1  
    19    3   12 1  
    20   20   21 am 
    21   20   25 am 
    22   25   24 am 
    23   22   29 2  
    24   24   23 2  
    25   24   26 1  
    26   26   27 1  
    27   20   30 2  
    28   27   28 2  
    29   21   31 1  
    30   28   23 1  
    31   23   22 1  
    32   22   21 am 
    33   25   32 1  
    34   26   33 1  
    35    3   27 1  
    36   34   35 2  
    37   34   36 1  
    38   36   37 1  
    39   37   38 1  
    40   37   39 1  
    41   37   40 1  
    42    1   34 1  
    43   42   41 1  
    44   41   48 2  
    45   43   42 1  
    46   49   43 2  
    47   44   45 2  
    48   44   49 1  
    49   45   46 1  
    50   46   47 2  
    51   47   48 1  
    52   48   49 1  
    53   41   50 1  
    54   43   54 1  
    55   44   51 1  
    56   46   52 1  
    57   47   53 1  
    58   14   42 1  
    59   55   58 1  
    60   56   59 1  
    61   57   58 ar 
    62   57   59 ar 
    63   58   60 ar 
    64   59   61 ar 
    65   60   62 ar 
    66   60   63 1  
    67   61   62 ar 
    68   61   64 1  
    69   62   65 1  
    70   45   57 1  
    71   66   67 2  
    72   66   68 1  
    73   66   69 1  
    74   68   70 1  
    75   68   71 1  
    76   14   68 1  
