@<TRIPOS>MOLECULE
WIQXJFDBCHQQBU-IOCOHYSWSA-N
   55    57     1     1     1
SMALL
USER_CHARGES


@<TRIPOS>ATOM
      1 C05       -12.1490   14.0970   69.7190 C.3        0 <0>       -0.378
      2 C06       -11.6060   14.5460   68.3340 C.2        0 <0>       -0.371
      3 C08       -12.0040   15.4120   65.9580 C.3        0 <0>       -0.404
      4 N07       -12.5410   14.9950   67.2680 N.am       0 <0>       -0.286
      5 O28       -10.4380   14.5220   68.1180 O.2        0 <0>       -0.211
      6 H07       -13.5362   15.0144   67.4393 H          0 <0>        0.000
      7 H081      -12.8253   15.7094   65.3061 H          0 <0>        0.000
      8 H083      -11.3255   16.2540   66.0948 H          0 <0>        0.000
      9 H051      -11.3163   13.8065   70.3595 H          0 <0>        0.000
     10 H052      -12.8198   13.2479   69.5881 H          0 <0>        0.000
     11 N1        -14.4944   12.9040   65.2948 N.1        0 <0>       -0.121
     12 C1        -11.9396   13.0986   64.9103 C.ar       0 <0>       -0.525
     13 C2        -11.2423   12.0491   64.3121 C.ar       0 <0>       -0.493
     14 C3        -11.2613   14.2528   65.3021 C.ar       0 <0>       -0.448
     15 C4         -9.8668   12.1539   64.1054 C.ar       0 <0>       -0.375
     16 C5         -9.8858   14.3575   65.0954 C.ar       0 <0>       -0.253
     17 C6         -9.1886   13.3081   64.4969 C.ar       0 <0>       -0.079
     18 C7        -13.3487   12.9913   65.1223 C.1        0 <0>       -0.384
     19 H1        -11.7568   11.1429   64.0014 H          0 <0>        0.000
     20 H5         -8.1175   13.3897   64.3360 H          0 <0>        0.000
     21 N         -14.7054   13.8165   71.2340 N.am       0 <0>       -0.422
     22 C         -14.4161   14.8569   70.4217 C.2        0 <0>       -0.423
     23 O         -15.2777   15.4647   69.8054 O.2        0 <0>       -0.270
     24 C4        -12.9726   15.2710   70.2802 C.3        0 <0>       -0.494
     25 H1        -13.9823   13.3326   71.7294 H          0 <0>        0.000
     26 H2        -15.6551   13.5203   71.3462 H          0 <0>        0.000
     27 H4        -12.8721   16.1298   69.5987 H          0 <0>        0.000
     28 C1         -7.1550    7.2342   62.1851 C.2        0 <0>       -0.072
     29 N2         -6.7271    7.9942   61.1381 N.am       0 <0>       -0.069
     30 C3         -7.0435    9.3036   61.0059 C.2        0 <0>       -0.188
     31 C2         -7.8813    9.8358   62.0775 C.2        0 <0>       -0.264
     32 C3         -8.2936    9.0778   63.0988 C.2        0 <0>       -0.186
     33 N6         -7.9346    7.7798   63.1577 N.am       0 <0>       -0.095
     34 N3         -9.0277    9.8022   63.9128 N.pl3      0 <0>       -0.220
     35 C5         -9.1117   11.0179   63.4577 C.2        0 <0>       -0.343
     36 N4         -8.4637   11.1116   62.3838 N.2        0 <0>       -0.321
     37 O10        -6.6808   10.0174   60.0846 O.2        0 <0>       -0.133
     38 O11        -6.8380    6.0563   62.2523 O.2        0 <0>       -0.037
     39 H1         -6.1535    7.5720   60.4324 H          0 <0>        0.000
     40 H2         -8.2500    7.2224   63.9281 H          0 <0>        0.000
     41 F2         -9.2390   15.4581   65.4687 F          0 <0>       -0.217
     42 C1         -9.6481    9.3195   65.1312 C.3        0 <0>       -0.192
     43 C2         -8.8697    9.8362   66.3379 C.3        0 <0>       -0.161
     44 H4         -9.6424    8.2315   65.1348 H          0 <0>        0.000
     45 H5        -10.6745    9.6771   65.1817 H          0 <0>        0.000
     46 H6         -9.3352    9.4740   67.2520 H          0 <0>        0.000
     47 H7         -8.8754   10.9242   66.3342 H          0 <0>        0.000
     48 O1        -12.2503   16.8333   71.8959 O.2        0 <0>       -0.338
     49 C1        -12.4234   15.6569   71.6228 C.2        0 <0>       -0.570
     50 H1        -12.1794   14.8866   72.3530 H          0 <0>        0.000
     51 C1         -6.5114   10.0565   65.6426 C.2        0 <0>       -0.101
     52 C2         -7.4538    9.3430   66.2681 C.2        0 <0>       -0.083
     53 H1         -5.4830    9.6982   65.5920 H          0 <0>        0.000
     54 H2         -6.7544   11.0093   65.1721 H          0 <0>        0.000
     55 H3         -7.2107    8.3902   66.7386 H          0 <0>        0.000
@<TRIPOS>BOND
     1    1    2 1  
     2    2    4 am 
     3    2    5 2  
     4    3    4 1  
     5    6    4 1  
     6    7    3 1  
     7    8    3 1  
     8    9    1 1  
     9   10    1 1  
    10   11   18 3  
    11   12   13 ar 
    12   12   14 ar 
    13   12   18 1  
    14   13   15 ar 
    15   13   19 1  
    16   14   16 ar 
    17   15   17 ar 
    18   16   17 ar 
    19   17   20 1  
    20    3   14 1  
    21   21   22 am 
    22   22   23 2  
    23   22   24 1  
    24   21   25 1  
    25   21   26 1  
    26   24   27 1  
    27    1   24 1  
    28   28   29 am 
    29   28   33 am 
    30   33   32 am 
    31   30   37 2  
    32   32   31 2  
    33   32   34 1  
    34   34   35 1  
    35   28   38 2  
    36   35   36 2  
    37   29   39 1  
    38   36   31 1  
    39   31   30 1  
    40   30   29 am 
    41   33   40 1  
    42   15   35 1  
    43   16   41 1  
    44   43   42 1  
    45   42   44 1  
    46   42   45 1  
    47   43   46 1  
    48   43   47 1  
    49   34   42 1  
    50   49   48 2  
    51   49   50 1  
    52   24   49 1  
    53   51   52 2  
    54   51   53 1  
    55   51   54 1  
    56   52   55 1  
    57   43   52 1  
