@<TRIPOS>MOLECULE
ZINC09237880
   45    47     0     0     0
SMALL
USER_CHARGES
N-(2-methoxyethyl)-N-[(2-oxo-1H-quinolin-3-yl)methyl]benzamide
@<TRIPOS>ATOM
      1 C1          2.4662    1.2756    4.9089 C.3       1 <0>         0.0319
      2 O1          2.0264    2.3893    4.1290 O.3       1 <0>        -0.3741
      3 C2          0.8025    2.1606    3.4277 C.3       1 <0>         0.0362
      4 C3          0.4297    3.4124    2.6309 C.3       1 <0>         0.0942
      5 N1          1.4344    3.6464    1.5908 N.am      1 <0>        -0.6051
      6 C4          1.2581    3.0647    0.2579 C.3       1 <0>         0.1697
      7 C5          1.8986    1.7012    0.2161 C.2       1 <0>        -0.1904
      8 C6          1.1483    0.5951    0.4445 C.2       1 <0>        -0.0182
      9 C7          1.8008   -0.7147    0.3967 C.ar      1 <0>        -0.1388
     10 C8          1.0790   -1.8914    0.6234 C.ar      1 <0>        -0.0553
     11 C9          1.7176   -3.0978    0.5725 C.ar      1 <0>        -0.1561
     12 C10         3.0764   -3.1670    0.2961 C.ar      1 <0>        -0.0631
     13 C11         3.8072   -2.0209    0.0691 C.ar      1 <0>        -0.1686
     14 C12         3.1786   -0.7807    0.1166 C.ar      1 <0>         0.1972
     15 N2          3.8851    0.3818   -0.1069 N.am      1 <0>        -0.6486
     16 H1          4.9621    0.3373   -0.3263 H         1 <0>         0.4393
     17 C13         3.2772    1.5802   -0.0614 C.2       1 <0>         0.5286
     18 O2          3.9330    2.5872   -0.2645 O.2       1 <0>        -0.4904
     19 C14         2.5210    4.3969    1.8601 C.2       1 <0>         0.5578
     20 O3          3.3987    4.5164    1.0277 O.2       1 <0>        -0.4881
     21 C15         2.6455    5.0749    3.1681 C.ar      1 <0>        -0.1001
     22 C16         1.6026    5.8686    3.6482 C.ar      1 <0>        -0.0990
     23 C17         1.7230    6.4942    4.8718 C.ar      1 <0>        -0.1239
     24 C18         2.8788    6.3450    5.6177 C.ar      1 <0>        -0.1047
     25 C19         3.9185    5.5642    5.1450 C.ar      1 <0>        -0.1219
     26 C20         3.8087    4.9285    3.9256 C.ar      1 <0>        -0.0571
     27 H2          3.4092    1.5314    5.4141 H         1 <0>         0.0846
     28 H3          2.6259    0.4080    4.2518 H         1 <0>         0.0361
     29 H4          1.7020    1.0301    5.6611 H         1 <0>         0.0408
     30 H5          0.9274    1.3116    2.7395 H         1 <0>         0.0524
     31 H6          0.0035    1.9335    4.1489 H         1 <0>         0.0574
     32 H7         -0.5557    3.2695    2.1633 H         1 <0>         0.0954
     33 H8          0.3926    4.2796    3.3066 H         1 <0>         0.1033
     34 H9          0.1844    2.9724    0.0372 H         1 <0>         0.0911
     35 H10         1.7318    3.7155   -0.4918 H         1 <0>         0.1032
     36 H11         0.0918    0.6781    0.6526 H         1 <0>         0.1403
     37 H12         0.0218   -1.8460    0.8390 H         1 <0>         0.1324
     38 H13         1.1603   -4.0061    0.7482 H         1 <0>         0.1288
     39 H14         3.5659   -4.1289    0.2589 H         1 <0>         0.1309
     40 H15         4.8638   -2.0852   -0.1451 H         1 <0>         0.1328
     41 H16         0.7017    5.9895    3.0649 H         1 <0>         0.1253
     42 H17         0.9150    7.1051    5.2465 H         1 <0>         0.1250
     43 H18         2.9695    6.8400    6.5733 H         1 <0>         0.1229
     44 H19         4.8180    5.4518    5.7321 H         1 <0>         0.1243
     45 H20         4.6210    4.3193    3.5577 H         1 <0>         0.1215
@<TRIPOS>BOND
     1    1    2 1
     2    1   27 1
     3    1   28 1
     4    1   29 1
     5    2    3 1
     6    3    4 1
     7    3   30 1
     8    3   31 1
     9    4    5 1
    10    4   32 1
    11    4   33 1
    12    5    6 1
    13    5   19 am
    14    6    7 1
    15    6   34 1
    16    6   35 1
    17    7   17 1
    18    7    8 2
    19    8    9 1
    20    8   36 1
    21    9   14 ar
    22    9   10 ar
    23   10   11 ar
    24   10   37 1
    25   11   12 ar
    26   11   38 1
    27   12   13 ar
    28   12   39 1
    29   13   14 ar
    30   13   40 1
    31   14   15 1
    32   15   16 1
    33   15   17 am
    34   17   18 2
    35   19   20 2
    36   19   21 1
    37   21   26 ar
    38   21   22 ar
    39   22   23 ar
    40   22   41 1
    41   23   24 ar
    42   23   42 1
    43   24   25 ar
    44   24   43 1
    45   25   26 ar
    46   25   44 1
    47   26   45 1
