@<TRIPOS>MOLECULE
DIVVNHYGQLFJNX-KXUCPTDWSA-P
   46    46     1     1     1
SMALL
USER_CHARGES


@<TRIPOS>ATOM
      1 N1         51.9280    5.8730   54.8550 N.4        0 <0>       -0.387
      2 N3         54.0680    6.4410   53.4330 N.4        0 <0>       -0.300
      3 C11        51.8950    5.2840   53.5120 C.3        0 <0>       -0.537
      4 C12        52.8420    6.1110   52.6610 C.3        0 <0>       -0.434
      5 C14        54.8480    5.5280   54.3130 C.3        0 <0>       -0.367
      6 C15        53.9780    4.6240   55.1930 C.3        0 <0>       -0.412
      7 C16        52.8810    5.4380   55.8900 C.3        0 <0>       -0.410
      8 H112       52.2270    4.2460   53.5470 H          0 <0>        0.000
      9 H113       50.8850    5.3380   53.1060 H          0 <0>        0.000
     10 H122       52.3450    7.0340   52.3620 H          0 <0>        0.000
     11 H123       53.1170    5.5440   51.7710 H          0 <0>        0.000
     12 H152       54.6050    4.1490   55.9480 H          0 <0>        0.000
     13 H162       53.3180    6.3070   56.3820 H          0 <0>        0.000
     14 H163       52.3700    4.8160   56.6250 H          0 <0>        0.000
     15 H12        52.0900    6.8612   54.7232 H          0 <0>        0.000
     16 H13        51.0015    5.7740   55.2448 H          0 <0>        0.000
     17 H32        54.7303    6.7647   52.7426 H          0 <0>        0.000
     18 H33        53.8359    7.2452   53.9982 H          0 <0>        0.000
     19 H142       55.5075    4.9120   53.7018 H          0 <0>        0.000
     20 O          54.8601    2.9017   53.2494 O.3        0 <0>       -0.547
     21 C          55.8786    2.5451   52.3258 C.3        0 <0>       -0.206
     22 O          55.4937    2.8366   54.5607 O.3        0 <0>       -0.327
     23 C          54.4761    3.1962   55.4841 C.3        0 <0>       -0.217
     24 H          55.4599    2.5763   51.3166 H          0 <0>        0.000
     25 H          56.2341    1.5313   52.5315 H          0 <0>        0.000
     26 H          56.7080    3.2555   52.3883 H          0 <0>        0.000
     27 H          54.8948    3.1652   56.4932 H          0 <0>        0.000
     28 O          57.2908    6.7793   56.7508 O.3        0 <0>       -0.430
     29 C          57.0600    7.2898   58.0561 C.3        0 <0>       -0.501
     30 O          55.9714    6.4309   56.2381 O.3        0 <0>       -0.340
     31 C          56.2018    5.9231   54.9316 C.3        0 <0>       -0.225
     32 H          58.0207    7.5705   58.4950 H          0 <0>        0.000
     33 H          56.5938    6.5235   58.6822 H          0 <0>        0.000
     34 H          56.4203    8.1757   58.0054 H          0 <0>        0.000
     35 H          56.8421    5.0375   54.9805 H          0 <0>        0.000
     36 H          56.6673    6.6909   54.3069 H          0 <0>        0.000
     37 N          54.5838   -0.3243   56.7290 N.4        0 <0>       -0.400
     38 N          54.9086    0.8130   55.9452 N.4        0 <0>       -0.206
     39 C          54.0549    1.9570   56.2958 C.3        0 <0>       -0.095
     40 O          56.2471    1.2478   56.2927 O.3        0 <0>       -0.005
     41 O          53.2811   -0.8489   56.3761 O.3        0 <0>       -0.624
     42 H          54.4801   -0.0893   57.7215 H          0 <0>        0.000
     43 H          53.0074    1.7557   56.0437 H          0 <0>        0.000
     44 H          54.1145    2.2087   57.3613 H          0 <0>        0.000
     45 H          56.7570    0.7779   55.6080 H          0 <0>        0.000
     46 H          53.3459   -0.8070   55.4043 H          0 <0>        0.000
@<TRIPOS>BOND
     1    3    1 1  
     2    3    4 1  
     3    3    8 1  
     4    3    9 1  
     5    4    2 1  
     6    4   10 1  
     7    4   11 1  
     8    5    2 1  
     9    5    6 1  
    10    6    7 1  
    11    6   12 1  
    12    7    1 1  
    13    7   13 1  
    14    7   14 1  
    15   15    1 1  
    16   16    1 1  
    17   17    2 1  
    18   18    2 1  
    19   19    5 1  
    20   20   21 1  
    21   20   22 1  
    22   22   23 1  
    23   21   24 1  
    24   21   25 1  
    25   21   26 1  
    26   23   27 1  
    27    6   23 1  
    28   28   29 1  
    29   28   30 1  
    30   30   31 1  
    31   29   32 1  
    32   29   33 1  
    33   29   34 1  
    34   31   35 1  
    35   31   36 1  
    36    5   31 1  
    37   37   38 1  
    38   38   39 1  
    39   38   40 1  
    40   37   41 1  
    41   37   42 1  
    42   39   43 1  
    43   39   44 1  
    44   40   45 1  
    45   41   46 1  
    46   23   39 1  
