@<TRIPOS>MOLECULE
SWWMRJMHDAUFGK-PRBCAEMQSA-N
   79    86     1     1     1
SMALL
USER_CHARGES


@<TRIPOS>ATOM
      1 C05       -12.1490   14.0970   69.7190 C.3        0 <0>       -0.378
      2 C06       -11.6060   14.5460   68.3340 C.2        0 <0>       -0.371
      3 C08       -12.0040   15.4120   65.9580 C.3        0 <0>       -0.404
      4 N07       -12.5410   14.9950   67.2680 N.am       0 <0>       -0.286
      5 O28       -10.4380   14.5220   68.1180 O.2        0 <0>       -0.211
      6 H07       -13.5362   15.0144   67.4393 H          0 <0>        0.000
      7 H081      -12.8253   15.7094   65.3061 H          0 <0>        0.000
      8 H051      -11.3163   13.8065   70.3595 H          0 <0>        0.000
      9 H053      -12.6923   14.9214   70.1809 H          0 <0>        0.000
     10 C1        -11.4838   13.0487   63.3010 C.2        0 <0>       -0.510
     11 C2        -11.2824   14.2616   63.8183 C.2        0 <0>       -0.449
     12 C3        -11.2413   14.2368   65.3187 C.3        0 <0>       -0.444
     13 C4        -11.9120   12.8693   65.6086 C.3        0 <0>       -0.473
     14 C5        -11.6133   11.9954   64.3629 C.3        0 <0>       -0.484
     15 H1        -11.5372   12.8417   62.2321 H          0 <0>        0.000
     16 H2        -11.1517   15.1656   63.2232 H          0 <0>        0.000
     17 H4        -10.1903   14.2524   65.6484 H          0 <0>        0.000
     18 H5        -13.0033   13.0233   65.6720 H          0 <0>        0.000
     19 H6        -11.5682   12.4107   66.5499 H          0 <0>        0.000
     20 H8        -12.4189   11.2731   64.1534 H          0 <0>        0.000
     21 C1         -8.7631   20.2375   67.1199 C.2        0 <0>       -0.503
     22 N2         -7.8063   19.6657   66.3359 N.am       0 <0>       -0.357
     23 C3         -7.9722   18.4632   65.7372 C.2        0 <0>       -0.293
     24 C2         -9.2610   17.8282   65.9999 C.2        0 <0>       -0.347
     25 C3        -10.1905   18.4014   66.7714 C.2        0 <0>       -0.470
     26 N6         -9.9477   19.6027   67.3326 N.am       0 <0>       -0.488
     27 N3        -11.2451   17.6207   66.8391 N.pl3      0 <0>       -0.320
     28 C5        -11.0383   16.5476   66.1335 C.2        0 <0>       -0.424
     29 N4         -9.8949   16.5999   65.6121 N.2        0 <0>       -0.352
     30 O10        -7.1409   17.9181   65.0290 O.2        0 <0>       -0.097
     31 O11        -8.5578   21.3259   67.6354 O.2        0 <0>       -0.377
     32 H1         -6.9406   20.1508   66.1926 H          0 <0>        0.000
     33 H2        -10.6522   20.0218   67.9087 H          0 <0>        0.000
     34 H3        -12.1042   17.8278   67.3699 H          0 <0>        0.000
     35 C         -13.0256   12.8970   69.5076 C.2        0 <0>       -0.124
     36 O         -13.9725   12.9972   68.7426 O.2        0 <0>        0.122
     37 O         -12.7294   11.7680   70.1691 O.3        0 <0>       -0.310
     38 C5        -13.6278   10.6738   69.9005 C.3        0 <0>       -0.224
     39 H1        -14.6585   10.9197   70.2012 H          0 <0>        0.000
     40 H2        -13.2905    9.8096   70.4915 H          0 <0>        0.000
     41 H3        -13.6098   10.3944   68.8350 H          0 <0>        0.000
     42 C1         -9.9423   10.7695   65.6115 C.2        0 <0>       -0.258
     43 N2        -10.3497   11.2957   64.4899 N.pl3      0 <0>       -0.353
     44 C2         -9.5245   11.1396   63.4922 C.2        0 <0>       -0.388
     45 C3         -7.2289    9.9692   63.3615 C.2        0 <0>       -0.152
     46 C4         -6.3806    9.3018   64.1567 C.2        0 <0>       -0.084
     47 C5         -6.6637    9.0511   65.5922 C.2        0 <0>       -0.068
     48 C6         -7.7866    9.4752   66.1893 C.2        0 <0>       -0.100
     49 C7         -8.7547   10.2129   65.3679 C.2        0 <0>       -0.190
     50 C8         -8.4771   10.4587   63.9603 C.2        0 <0>       -0.230
     51 H10       -10.4627   10.7766   66.5692 H          0 <0>        0.000
     52 H4         -7.0158   10.1505   62.3079 H          0 <0>        0.000
     53 H6         -5.9264    8.5004   66.1775 H          0 <0>        0.000
     54 H7         -7.9892    9.2882   67.2440 H          0 <0>        0.000
     55 H17        -9.6543   11.4925   62.4690 H          0 <0>        0.000
     56 F1         -6.0151    7.8398   61.7688 F          0 <0>       -0.040
     57 F2         -4.0310    9.5963   65.6941 F          0 <0>       -0.031
     58 C1         -5.0473    8.7288   63.7392 C.ar       0 <0>       -0.044
     59 C2         -4.9378    8.0162   62.5449 C.ar       0 <0>       -0.031
     60 C3         -3.9255    8.9117   64.5475 C.ar       0 <0>       -0.030
     61 C4         -3.7064    7.4868   62.1591 C.ar       0 <0>       -0.017
     62 C5         -2.6941    8.3824   64.1617 C.ar       0 <0>       -0.012
     63 C6         -2.5845    7.6699   62.9675 C.ar       0 <0>       -0.009
     64 H3         -1.8208    8.5253   64.7912 H          0 <0>        0.000
     65 H4         -1.6256    7.2578   62.6671 H          0 <0>        0.000
     66 C1         -3.7965    5.4157   60.9599 C.2        0 <0>       -0.005
     67 N2         -3.5956    6.7635   60.9469 N.am       0 <0>       -0.010
     68 C3         -3.2925    7.4480   59.8193 C.2        0 <0>       -0.014
     69 C2         -3.1983    6.6240   58.6170 C.2        0 <0>       -0.009
     70 C3         -3.3981    5.3023   58.6450 C.2        0 <0>       -0.004
     71 N6         -3.6967    4.6943   59.8105 N.am       0 <0>       -0.002
     72 N3         -3.2533    4.8121   57.4347 N.pl3      0 <0>       -0.002
     73 C5         -2.9634    5.7733   56.6076 C.2        0 <0>       -0.004
     74 N4         -2.9142    6.8648   57.2306 N.2        0 <0>       -0.007
     75 O10        -3.1053    8.6529   59.7660 O.2        0 <0>       -0.022
     76 O11        -4.0678    4.8504   62.0084 O.2        0 <0>       -0.003
     77 H2         -3.8441    3.7034   59.8184 H          0 <0>        0.000
     78 H3         -3.3542    3.8181   57.1804 H          0 <0>        0.000
     79 H4         -2.7878    5.6630   55.5378 H          0 <0>        0.000
@<TRIPOS>BOND
     1    1    2 1  
     2    2    4 am 
     3    2    5 2  
     4    3    4 1  
     5    6    4 1  
     6    7    3 1  
     7    8    1 1  
     8    9    1 1  
     9   10   11 2  
    10   10   14 1  
    11   11   12 1  
    12   12   13 1  
    13   13   14 1  
    14   10   15 1  
    15   11   16 1  
    16   12   17 1  
    17   13   18 1  
    18   13   19 1  
    19   14   20 1  
    20    3   12 1  
    21   21   22 am 
    22   21   26 am 
    23   26   25 am 
    24   23   30 2  
    25   25   24 2  
    26   25   27 1  
    27   27   28 1  
    28   21   31 2  
    29   28   29 2  
    30   22   32 1  
    31   29   24 1  
    32   24   23 1  
    33   23   22 am 
    34   26   33 1  
    35   27   34 1  
    36    3   28 1  
    37   35   36 2  
    38   35   37 1  
    39   37   38 1  
    40   38   39 1  
    41   38   40 1  
    42   38   41 1  
    43    1   35 1  
    44   43   42 1  
    45   42   49 2  
    46   44   43 1  
    47   50   44 2  
    48   45   46 2  
    49   45   50 1  
    50   46   47 1  
    51   47   48 2  
    52   48   49 1  
    53   49   50 1  
    54   42   51 1  
    55   44   55 1  
    56   45   52 1  
    57   47   53 1  
    58   48   54 1  
    59   14   43 1  
    60   56   59 1  
    61   57   60 1  
    62   58   59 ar 
    63   58   60 ar 
    64   59   61 ar 
    65   60   62 ar 
    66   61   63 ar 
    67   62   63 ar 
    68   62   64 1  
    69   63   65 1  
    70   46   58 1  
    71   66   67 am 
    72   66   71 am 
    73   71   70 am 
    74   68   75 2  
    75   70   69 2  
    76   70   72 1  
    77   72   73 1  
    78   66   76 2  
    79   73   74 2  
    80   74   69 1  
    81   69   68 1  
    82   68   67 am 
    83   71   77 1  
    84   72   78 1  
    85   73   79 1  
    86   61   67 1  
