@<TRIPOS>MOLECULE
NUZUZMZLWVKIMN-UUHNZTRQSA-N
   64    67     1     1     1
SMALL
USER_CHARGES


@<TRIPOS>ATOM
      1 C05       -12.1490   14.0970   69.7190 C.3        0 <0>       -0.378
      2 C06       -11.6060   14.5460   68.3340 C.2        0 <0>       -0.371
      3 C08       -12.0040   15.4120   65.9580 C.3        0 <0>       -0.404
      4 N07       -12.5410   14.9950   67.2680 N.am       0 <0>       -0.286
      5 O28       -10.4380   14.5220   68.1180 O.2        0 <0>       -0.211
      6 H07       -13.5362   15.0144   67.4393 H          0 <0>        0.000
      7 H051      -11.3163   13.8065   70.3595 H          0 <0>        0.000
      8 H052      -12.8198   13.2479   69.5881 H          0 <0>        0.000
      9 C1         -5.9943   19.4857   63.8847 C.ar       0 <0>       -0.253
     10 C2         -5.2085   20.6205   64.0973 C.ar       0 <0>       -0.270
     11 C3         -5.5290   21.4954   65.1374 C.ar       0 <0>       -0.206
     12 C4         -6.6299   21.2305   65.9569 C.ar       0 <0>       -0.333
     13 C5         -7.4249   20.0941   65.7518 C.ar       0 <0>       -0.385
     14 C6         -7.0966   19.2234   64.7057 C.ar       0 <0>       -0.195
     15 N1         -8.4896   19.8577   66.5623 N.pl3      0 <0>       -0.406
     16 C7         -9.3173   18.7916   66.4072 C.ar       0 <0>       -0.417
     17 C8         -9.1046   17.8427   65.3997 C.ar       0 <0>       -0.193
     18 C9         -7.9284   17.9728   64.4365 C.3        0 <0>        0.228
     19 C10       -10.4119   18.6265   67.2675 C.ar       0 <0>       -0.475
     20 C11       -11.2798   17.5401   67.1264 C.ar       0 <0>       -0.305
     21 C12       -11.0604   16.5993   66.1181 C.ar       0 <0>       -0.426
     22 C13        -9.9712   16.7533   65.2578 C.ar       0 <0>       -0.300
     23 H1         -5.7450   18.8053   63.0763 H          0 <0>        0.000
     24 H3         -4.9232   22.3801   65.3084 H          0 <0>        0.000
     25 H4         -6.8600   21.9243   66.7594 H          0 <0>        0.000
     26 H5         -8.6801   20.5212   67.3303 H          0 <0>        0.000
     27 H6         -7.2831   17.0870   64.5415 H          0 <0>        0.000
     28 H8        -10.6014   19.3445   68.0592 H          0 <0>        0.000
     29 H9        -12.1243   17.4270   67.7995 H          0 <0>        0.000
     30 H11        -9.7995   16.0210   64.4750 H          0 <0>        0.000
     31 C1        -11.2413   14.2368   65.3187 C.3        0 <0>       -0.444
     32 H2        -11.4944   13.3148   65.8380 H          0 <0>        0.000
     33 O3        -11.6075   14.1239   63.9411 O.3        0 <0>       -0.499
     34 H4        -10.1706   14.4143   65.3959 H          0 <0>        0.000
     35 H6        -11.3850   14.9423   63.4704 H          0 <0>        0.000
     36 O1        -13.3856   17.8968   73.5525 O.2        0 <0>       -0.290
     37 O2        -13.8346   13.6333   71.8582 O.2        0 <0>       -0.542
     38 N1        -13.5701   15.7663   72.6915 N.am       0 <0>       -0.627
     39 C1        -11.9364   16.4329   70.5809 C.3        0 <0>       -0.360
     40 C2        -12.6502   17.5646   71.2975 C.3        0 <0>        0.000
     41 C3        -12.8918   15.2699   70.3856 C.3        0 <0>       -0.512
     42 C4        -13.2120   17.1090   72.6231 C.2        0 <0>       -0.266
     43 C5        -13.4559   14.7939   71.7030 C.2        0 <0>       -0.645
     44 H1        -11.5635   16.7790   69.6110 H          0 <0>        0.000
     45 H2        -11.0704   16.1074   71.1707 H          0 <0>        0.000
     46 H3        -13.4774   17.9509   70.6916 H          0 <0>        0.000
     47 H4        -11.9477   18.3849   71.4807 H          0 <0>        0.000
     48 H6        -13.7295   15.5561   69.7398 H          0 <0>        0.000
     49 H7        -13.9648   15.4566   73.5755 H          0 <0>        0.000
     50 C1        -13.1570   15.7940   65.0113 C.3        0 <0>       -0.514
     51 C2        -14.1418   14.6521   64.9310 C.2        0 <0>       -0.314
     52 C3        -15.3711   14.7749   64.0628 C.3        0 <0>       -0.289
     53 O4        -13.9458   13.6387   65.5624 O.2        0 <0>       -0.263
     54 H5        -13.6599   16.6806   65.3916 H          0 <0>        0.000
     55 H6        -12.7589   16.0000   64.0198 H          0 <0>        0.000
     56 H8        -15.0706   14.9360   63.0295 H          0 <0>        0.000
     57 H9        -15.9716   15.6166   64.4012 H          0 <0>        0.000
     58 H10       -15.9566   13.8605   64.1318 H          0 <0>        0.000
     59 F2         -4.1616   20.8667   63.3148 F          0 <0>       -0.148
     60 C1         -8.6665   16.8218   62.3812 C.2        0 <0>        0.496
     61 C2         -8.4867   17.9698   63.0431 C.2        0 <0>        0.436
     62 H1         -9.0719   16.8196   61.3693 H          0 <0>        0.000
     63 H2         -8.4109   15.8673   62.8417 H          0 <0>        0.000
     64 H3         -8.7423   18.9243   62.5827 H          0 <0>        0.000
@<TRIPOS>BOND
     1    1    2 1  
     2    2    4 am 
     3    2    5 2  
     4    3    4 1  
     5    6    4 1  
     6    7    1 1  
     7    8    1 1  
     8    9   10 ar 
     9    9   14 ar 
    10   10   11 ar 
    11   11   12 ar 
    12   12   13 ar 
    13   13   14 ar 
    14   13   15 1  
    15   14   18 1  
    16   15   16 1  
    17   16   17 ar 
    18   16   19 ar 
    19   17   18 1  
    20   17   22 ar 
    21   19   20 ar 
    22   20   21 ar 
    23   21   22 ar 
    24    9   23 1  
    25   11   24 1  
    26   12   25 1  
    27   15   26 1  
    28   18   27 1  
    29   19   28 1  
    30   20   29 1  
    31   22   30 1  
    32    3   21 1  
    33   31   32 1  
    34   31   33 1  
    35   31   34 1  
    36   33   35 1  
    37    3   31 1  
    38   36   42 2  
    39   37   43 2  
    40   38   42 am 
    41   38   43 am 
    42   38   49 1  
    43   39   40 1  
    44   39   41 1  
    45   39   44 1  
    46   39   45 1  
    47   40   42 1  
    48   40   46 1  
    49   40   47 1  
    50   41   43 1  
    51   41   48 1  
    52    1   41 1  
    53   51   50 1  
    54   51   52 1  
    55   51   53 2  
    56   50   54 1  
    57   50   55 1  
    58   52   56 1  
    59   52   57 1  
    60   52   58 1  
    61    3   50 1  
    62   10   59 1  
    63   60   61 2  
    64   60   62 1  
    65   60   63 1  
    66   61   64 1  
    67   18   61 1  
