@<TRIPOS>MOLECULE
MLORUUOHXWIOKR-SECBINFHSA-Q
   44    44     1     1     1
SMALL
USER_CHARGES


@<TRIPOS>ATOM
      1 N1         51.9280    5.8730   54.8550 N.4        0 <0>       -0.387
      2 N3         54.0680    6.4410   53.4330 N.4        0 <0>       -0.300
      3 C11        51.8950    5.2840   53.5120 C.3        0 <0>       -0.537
      4 C12        52.8420    6.1110   52.6610 C.3        0 <0>       -0.434
      5 C14        54.8480    5.5280   54.3130 C.3        0 <0>       -0.367
      6 C15        53.9780    4.6240   55.1930 C.3        0 <0>       -0.412
      7 C16        52.8810    5.4380   55.8900 C.3        0 <0>       -0.410
      8 H112       52.2270    4.2460   53.5470 H          0 <0>        0.000
      9 H113       50.8850    5.3380   53.1060 H          0 <0>        0.000
     10 H122       52.3450    7.0340   52.3620 H          0 <0>        0.000
     11 H123       53.1170    5.5440   51.7710 H          0 <0>        0.000
     12 H14        55.4470    6.1500   54.9780 H          0 <0>        0.000
     13 H152       54.6050    4.1490   55.9480 H          0 <0>        0.000
     14 H162       53.3180    6.3070   56.3820 H          0 <0>        0.000
     15 H163       52.3700    4.8160   56.6250 H          0 <0>        0.000
     16 H12        52.0900    6.8612   54.7232 H          0 <0>        0.000
     17 H13        51.0015    5.7740   55.2448 H          0 <0>        0.000
     18 H32        54.7303    6.7647   52.7426 H          0 <0>        0.000
     19 H33        53.8359    7.2452   53.9982 H          0 <0>        0.000
     20 H142       55.5075    4.9120   53.7018 H          0 <0>        0.000
     21 O          54.8601    2.9017   53.2494 O.3        0 <0>       -0.547
     22 C          55.8786    2.5451   52.3258 C.3        0 <0>       -0.206
     23 O          55.4937    2.8366   54.5607 O.3        0 <0>       -0.327
     24 C          54.4761    3.1962   55.4841 C.3        0 <0>       -0.217
     25 H          55.4599    2.5763   51.3166 H          0 <0>        0.000
     26 H          56.2341    1.5313   52.5315 H          0 <0>        0.000
     27 H          54.8948    3.1652   56.4932 H          0 <0>        0.000
     28 O          59.5548    3.9504   53.0787 O.3        0 <0>       -0.385
     29 S          57.9767    3.7971   53.5726 S.3        0 <0>       -0.313
     30 C          57.3976    2.7684   52.2069 C.3        0 <0>       -0.272
     31 O          60.3200    2.8000   53.4998 O.3        0 <0>       -0.230
     32 H          57.9016    1.8001   52.2373 H          0 <0>        0.000
     33 H          57.6106    3.2605   51.2525 H          0 <0>        0.000
     34 H          61.1102    3.3031   53.7662 H          0 <0>        0.000
     35 N          54.2402    0.3955   56.2598 N.4        0 <0>       -0.281
     36 N          53.1557    1.0847   55.6364 N.3        0 <0>       -0.185
     37 C          53.1869    2.5122   55.9758 C.3        0 <0>       -0.093
     38 S          53.0808    0.6334   54.0419 S.3        0 <0>        0.082
     39 O          54.1505    0.4408   57.7048 O.3        0 <0>       -0.359
     40 H          55.1404    0.8421   56.0598 H          0 <0>        0.000
     41 H          53.1014    2.6686   57.0563 H          0 <0>        0.000
     42 H          52.3336    3.0305   55.5224 H          0 <0>        0.000
     43 H          53.0144   -0.6928   54.2316 H          0 <0>        0.000
     44 H          53.8936   -0.4798   57.8958 H          0 <0>        0.000
@<TRIPOS>BOND
     1    3    1 1  
     2    3    4 1  
     3    3    8 1  
     4    3    9 1  
     5    4    2 1  
     6    4   10 1  
     7    4   11 1  
     8    5    2 1  
     9    5    6 1  
    10    5   12 1  
    11    6    7 1  
    12    6   13 1  
    13    7    1 1  
    14    7   14 1  
    15    7   15 1  
    16   16    1 1  
    17   17    1 1  
    18   18    2 1  
    19   19    2 1  
    20   20    5 1  
    21   21   22 1  
    22   21   23 1  
    23   23   24 1  
    24   22   25 1  
    25   22   26 1  
    26   24   27 1  
    27    6   24 1  
    28   28   29 1  
    29   29   30 1  
    30   28   31 1  
    31   30   32 1  
    32   30   33 1  
    33   31   34 1  
    34   22   30 1  
    35   35   36 1  
    36   36   37 1  
    37   36   38 1  
    38   35   39 1  
    39   35   40 1  
    40   37   41 1  
    41   37   42 1  
    42   38   43 1  
    43   39   44 1  
    44   24   37 1  
