@<TRIPOS>MOLECULE
AGFHOZWUGXSJMH-HBNTYKKESA-P
   48    48     1     1     1
SMALL
USER_CHARGES


@<TRIPOS>ATOM
      1 N1         51.9280    5.8730   54.8550 N.4        0 <0>       -0.387
      2 N3         54.0680    6.4410   53.4330 N.4        0 <0>       -0.300
      3 C11        51.8950    5.2840   53.5120 C.3        0 <0>       -0.537
      4 C12        52.8420    6.1110   52.6610 C.3        0 <0>       -0.434
      5 C14        54.8480    5.5280   54.3130 C.3        0 <0>       -0.367
      6 C15        53.9780    4.6240   55.1930 C.3        0 <0>       -0.412
      7 C16        52.8810    5.4380   55.8900 C.3        0 <0>       -0.410
      8 H112       52.2270    4.2460   53.5470 H          0 <0>        0.000
      9 H113       50.8850    5.3380   53.1060 H          0 <0>        0.000
     10 H122       52.3450    7.0340   52.3620 H          0 <0>        0.000
     11 H123       53.1170    5.5440   51.7710 H          0 <0>        0.000
     12 H14        55.4470    6.1500   54.9780 H          0 <0>        0.000
     13 H152       54.6050    4.1490   55.9480 H          0 <0>        0.000
     14 H163       52.3700    4.8160   56.6250 H          0 <0>        0.000
     15 H12        52.0900    6.8612   54.7232 H          0 <0>        0.000
     16 H13        51.0015    5.7740   55.2448 H          0 <0>        0.000
     17 H32        54.7303    6.7647   52.7426 H          0 <0>        0.000
     18 H33        53.8359    7.2452   53.9982 H          0 <0>        0.000
     19 H142       55.5075    4.9120   53.7018 H          0 <0>        0.000
     20 O          54.8601    2.9017   53.2494 O.3        0 <0>       -0.547
     21 C          55.8786    2.5451   52.3258 C.3        0 <0>       -0.206
     22 O          55.4937    2.8366   54.5607 O.3        0 <0>       -0.327
     23 C          54.4761    3.1962   55.4841 C.3        0 <0>       -0.217
     24 H          55.4599    2.5763   51.3166 H          0 <0>        0.000
     25 H          56.2341    1.5313   52.5315 H          0 <0>        0.000
     26 H          56.7080    3.2555   52.3883 H          0 <0>        0.000
     27 H          54.8948    3.1652   56.4932 H          0 <0>        0.000
     28 O          52.7081   -0.3862   55.1712 O.3        0 <0>        0.062
     29 S          54.1144    0.4969   55.1559 S.3        0 <0>       -0.113
     30 C          53.3915    2.1046   55.5450 C.3        0 <0>       -0.171
     31 O          52.3733   -0.7616   56.5252 O.3        0 <0>       -0.550
     32 H          52.9670    2.0825   56.5509 H          0 <0>        0.000
     33 H          52.6049    2.3449   54.8225 H          0 <0>        0.000
     34 H          52.0920   -1.6680   56.3063 H          0 <0>        0.000
     35 N          54.5379    5.8066   57.6893 N.3        0 <0>       -0.409
     36 C          54.6992    7.2151   57.3091 C.3        0 <0>       -0.290
     37 C          56.1279    7.7014   57.6132 C.3        0 <0>       -0.402
     38 N          56.3116    9.1051   57.2413 N.3        0 <0>       -0.350
     39 C          53.1875    5.3437   57.3963 C.3        0 <0>       -0.429
     40 H          54.7119    5.7106   58.6900 H          0 <0>        0.000
     41 H          53.9795    7.8369   57.8560 H          0 <0>        0.000
     42 H          54.5012    7.3328   56.2364 H          0 <0>        0.000
     43 H          56.8567    7.0893   57.0692 H          0 <0>        0.000
     44 H          56.3383    7.5932   58.6832 H          0 <0>        0.000
     45 H          56.1772    9.2047   56.2353 H          0 <0>        0.000
     46 H          57.2793    9.3701   57.4219 H          0 <0>        0.000
     47 H          52.4371    5.9158   57.9517 H          0 <0>        0.000
     48 H          53.0921    4.2927   57.6863 H          0 <0>        0.000
@<TRIPOS>BOND
     1    3    1 1  
     2    3    4 1  
     3    3    8 1  
     4    3    9 1  
     5    4    2 1  
     6    4   10 1  
     7    4   11 1  
     8    5    2 1  
     9    5    6 1  
    10    5   12 1  
    11    6    7 1  
    12    6   13 1  
    13    7    1 1  
    14    7   14 1  
    15   15    1 1  
    16   16    1 1  
    17   17    2 1  
    18   18    2 1  
    19   19    5 1  
    20   20   21 1  
    21   20   22 1  
    22   22   23 1  
    23   21   24 1  
    24   21   25 1  
    25   21   26 1  
    26   23   27 1  
    27    6   23 1  
    28   28   29 1  
    29   29   30 1  
    30   28   31 1  
    31   30   32 1  
    32   30   33 1  
    33   31   34 1  
    34   23   30 1  
    35   35   36 1  
    36   36   37 1  
    37   37   38 1  
    38   35   39 1  
    39   35   40 1  
    40   36   41 1  
    41   36   42 1  
    42   37   43 1  
    43   37   44 1  
    44   38   45 1  
    45   38   46 1  
    46   39   47 1  
    47   39   48 1  
    48    7   39 1  
