@<TRIPOS>MOLECULE
CQOWBYSXUOAHFE-GZSWCTBRSA-O
   63    65     1     1     1
SMALL
USER_CHARGES


@<TRIPOS>ATOM
      1 C05       -12.1490   14.0970   69.7190 C.3        0 <0>       -0.378
      2 C06       -11.6060   14.5460   68.3340 C.2        0 <0>       -0.371
      3 C08       -12.0040   15.4120   65.9580 C.3        0 <0>       -0.404
      4 N07       -12.5410   14.9950   67.2680 N.am       0 <0>       -0.286
      5 O28       -10.4380   14.5220   68.1180 O.2        0 <0>       -0.211
      6 H081      -12.8253   15.7094   65.3061 H          0 <0>        0.000
      7 H053      -12.6923   14.9214   70.1809 H          0 <0>        0.000
      8 C1        -13.8809   15.1117   67.2775 C.2        0 <0>       -0.158
      9 O1        -14.4202   15.6287   68.2444 O.2        0 <0>       -0.131
     10 O2        -14.5756   14.6578   66.2292 O.3        0 <0>       -0.103
     11 H2        -15.5153   14.7799   66.3182 H          0 <0>        0.000
     12 O1        -10.1108   12.9905   70.1599 O.2        0 <0>       -0.080
     13 C1        -11.0023   13.6969   70.6010 C.2        0 <0>       -0.161
     14 N1        -12.1432   13.0800   65.1230 N.4        0 <0>       -0.476
     15 C1        -11.2413   14.2368   65.3187 C.3        0 <0>       -0.444
     16 H2        -12.5565   12.7388   66.0631 H          0 <0>        0.000
     17 H3        -12.9726   13.3319   64.4753 H          0 <0>        0.000
     18 H5        -10.8296   14.5719   64.3529 H          0 <0>        0.000
     19 H6        -10.4028   13.9639   65.9799 H          0 <0>        0.000
     20 H1        -11.6218   12.2449   64.6745 H          0 <0>        0.000
     21 S1        -13.6688   10.5435   68.5835 S.2        0 <0>        0.209
     22 N1        -11.3834   11.7202   68.3095 N.ar       0 <0>       -0.367
     23 N2        -13.0151   12.9563   69.4927 N.pl3      0 <0>       -0.135
     24 C1        -12.5892   11.8572   68.8149 C.ar       0 <0>       -0.153
     25 C2        -12.4338    9.7102   67.7339 C.ar       0 <0>        0.015
     26 C3        -11.2961   10.4886   67.6904 C.ar       0 <0>       -0.270
     27 H1        -12.5926    8.7242   67.3214 H          0 <0>        0.000
     28 H2        -10.3678   10.2022   67.2149 H          0 <0>        0.000
     29 H3        -13.9560   13.0220   69.8671 H          0 <0>        0.000
     30 C1        -11.4067   13.4957   72.0324 C.3        0 <0>       -0.079
     31 H2        -10.6041   12.9940   72.5689 H          0 <0>        0.000
     32 O3        -11.6641   14.7652   72.6381 O.3        0 <0>       -0.406
     33 H4        -12.3066   12.8855   72.0728 H          0 <0>        0.000
     34 H6        -12.3791   15.2195   72.1654 H          0 <0>        0.000
     35 N1        -10.1081   19.5435   69.8809 N.1        0 <0>       -0.363
     36 C1        -10.0955   18.2586   67.6311 C.ar       0 <0>       -0.423
     37 C2        -11.0106   17.2292   67.4106 C.ar       0 <0>       -0.349
     38 C3         -9.1733   18.5959   66.6405 C.ar       0 <0>       -0.404
     39 C4        -11.0036   16.5374   66.1994 C.ar       0 <0>       -0.417
     40 C5         -9.1663   17.9041   65.4293 C.ar       0 <0>       -0.214
     41 C6        -10.0815   16.8749   65.2087 C.ar       0 <0>       -0.321
     42 C7        -10.1024   18.9673   68.8720 C.1        0 <0>       -0.419
     43 H1        -11.7355   16.9543   68.1731 H          0 <0>        0.000
     44 H4         -8.4483   18.1668   64.6579 H          0 <0>        0.000
     45 H5        -10.0760   16.3362   64.2656 H          0 <0>        0.000
     46 C1         -8.3308   20.8940   66.2634 C.2        0 <0>       -0.464
     47 C2         -8.1739   19.7067   66.8585 C.2        0 <0>       -0.422
     48 H2         -9.1832   21.0814   65.6101 H          0 <0>        0.000
     49 H3         -7.3216   19.5193   67.5118 H          0 <0>        0.000
     50 C1         -7.0156   21.4568   65.7802 C.ar       0 <0>       -0.292
     51 C2         -6.1438   22.0711   66.6843 C.ar       0 <0>       -0.090
     52 C3         -4.9259   22.5921   66.2368 C.ar       0 <0>       -0.122
     53 C4         -4.5800   22.4989   64.8854 C.ar       0 <0>       -0.023
     54 C5         -5.4519   21.8845   63.9813 C.ar       0 <0>       -0.148
     55 C6         -6.6697   21.3635   64.4288 C.ar       0 <0>       -0.260
     56 H2         -6.4125   22.1434   67.7336 H          0 <0>        0.000
     57 H4         -3.6344   22.9036   64.5380 H          0 <0>        0.000
     58 H5         -5.1832   21.8122   62.9319 H          0 <0>        0.000
     59 H6         -7.3467   20.8865   63.7267 H          0 <0>        0.000
     60 C1         -3.7794   24.4559   66.8723 C.2        0 <0>       -0.144
     61 O1         -4.1845   25.0054   65.8590 O.2        0 <0>       -0.064
     62 O2         -4.0999   23.1945   67.1785 O.3        0 <0>       -0.176
     63 H1         -3.1347   25.0137   67.5500 H          0 <0>        0.000
@<TRIPOS>BOND
     1    1    2 1  
     2    2    4 am 
     3    2    5 2  
     4    3    4 1  
     5    6    3 1  
     6    7    1 1  
     7    8    9 2  
     8    8   10 1  
     9   10   11 1  
    10    4    8 am 
    11   13   12 2  
    12    1   13 1  
    13   14   15 1  
    14   14   16 1  
    15   14   17 1  
    16   15   18 1  
    17   15   19 1  
    18   14   20 1  
    19    3   15 1  
    20   21   24 ar 
    21   21   25 ar 
    22   22   24 ar 
    23   22   26 ar 
    24   23   24 1  
    25   23   29 1  
    26   25   26 ar 
    27   25   27 1  
    28   26   28 1  
    29    1   23 1  
    30   30   31 1  
    31   30   32 1  
    32   30   33 1  
    33   32   34 1  
    34   13   30 1  
    35   35   42 3  
    36   36   37 ar 
    37   36   38 ar 
    38   36   42 1  
    39   37   39 ar 
    40   37   43 1  
    41   38   40 ar 
    42   39   41 ar 
    43   40   41 ar 
    44   40   44 1  
    45   41   45 1  
    46    3   39 1  
    47   46   47 2  
    48   46   48 1  
    49   47   49 1  
    50   38   47 1  
    51   50   51 ar 
    52   50   55 ar 
    53   51   52 ar 
    54   52   53 ar 
    55   53   54 ar 
    56   54   55 ar 
    57   51   56 1  
    58   53   57 1  
    59   54   58 1  
    60   55   59 1  
    61   46   50 1  
    62   60   61 2  
    63   60   62 1  
    64   60   63 1  
    65   52   62 1  
