@<TRIPOS>MOLECULE
KDGCAOYOICPSOH-KTOWXAHTSA-N
   51    55     1     1     1
SMALL
USER_CHARGES


@<TRIPOS>ATOM
      1 C05       -12.1490   14.0970   69.7190 C.3        0 <0>       -0.378
      2 C06       -11.6060   14.5460   68.3340 C.2        0 <0>       -0.371
      3 C08       -12.0040   15.4120   65.9580 C.3        0 <0>       -0.404
      4 N07       -12.5410   14.9950   67.2680 N.am       0 <0>       -0.286
      5 O28       -10.4380   14.5220   68.1180 O.2        0 <0>       -0.211
      6 H07       -13.5362   15.0144   67.4393 H          0 <0>        0.000
      7 H082      -11.4642   14.5802   65.5055 H          0 <0>        0.000
      8 H051      -11.3163   13.8065   70.3595 H          0 <0>        0.000
      9 H053      -12.6923   14.9214   70.1809 H          0 <0>        0.000
     10 C1         -8.7485   20.1755   67.3181 C.2        0 <0>       -0.473
     11 N2         -7.9056   19.7619   66.3305 N.am       0 <0>       -0.370
     12 C3         -8.1288   18.6471   65.5961 C.2        0 <0>       -0.262
     13 C2         -9.3474   17.9232   65.9486 C.2        0 <0>       -0.348
     14 C3        -10.1652   18.3411   66.9203 C.2        0 <0>       -0.462
     15 N6         -9.8717   19.4635   67.6066 N.am       0 <0>       -0.469
     16 N3        -11.1778   17.5108   67.0271 N.pl3      0 <0>       -0.320
     17 C5        -11.0519   16.5559   66.1529 C.2        0 <0>       -0.422
     18 N4        -10.0010   16.7322   65.4847 N.2        0 <0>       -0.350
     19 O10        -7.3993   18.2437   64.7046 O.2        0 <0>       -0.042
     20 O11        -8.4960   21.1907   67.9490 O.2        0 <0>       -0.344
     21 H1         -7.0836   20.3015   66.1345 H          0 <0>        0.000
     22 H2        -10.4924   19.7662   68.3325 H          0 <0>        0.000
     23 H3        -11.9529   17.6029   67.7008 H          0 <0>        0.000
     24 F1        -16.2989   17.8802   66.9804 F          0 <0>       -0.185
     25 F2        -16.6109   19.0527   65.1826 F          0 <0>       -0.071
     26 F3        -17.6261   17.1447   65.4227 F          0 <0>       -0.234
     27 C1        -15.2936   17.0679   64.9672 C.ar       0 <0>        0.076
     28 C2        -14.2305   16.5918   65.7346 C.ar       0 <0>       -0.305
     29 C3        -15.2925   16.8848   63.5844 C.ar       0 <0>        0.082
     30 C4        -16.4314   17.7729   65.6251 C.3        0 <0>       -0.015
     31 C5        -13.1664   15.9326   65.1192 C.ar       0 <0>       -0.497
     32 C6        -14.2284   16.2256   62.9690 C.ar       0 <0>       -0.078
     33 C7        -13.1653   15.7494   63.7363 C.ar       0 <0>       -0.376
     34 H1        -14.2133   16.7249   66.8128 H          0 <0>        0.000
     35 H2        -16.1162   17.2523   62.9781 H          0 <0>        0.000
     36 H4        -14.2275   16.0830   61.8923 H          0 <0>        0.000
     37 H5        -12.3367   15.2362   63.2573 H          0 <0>        0.000
     38 C1        -11.2871    9.8008   69.9283 C.2        0 <0>       -0.342
     39 N2        -12.3581    8.9794   69.7406 N.am       0 <0>       -0.320
     40 C3        -13.6067    9.4460   69.5052 C.2        0 <0>       -0.281
     41 C2        -13.7125   10.9023   69.4686 C.2        0 <0>       -0.056
     42 C3        -12.6526   11.6957   69.6545 C.2        0 <0>       -0.296
     43 N6        -11.4406   11.1521   69.8841 N.am       0 <0>       -0.353
     44 N3        -13.0268   12.9524   69.5708 N.pl3      0 <0>       -0.146
     45 C5        -14.3046   13.0113   69.3346 C.2        0 <0>        0.173
     46 N4        -14.7738   11.8467   69.2620 N.2        0 <0>        0.189
     47 O10       -14.5904    8.7445   69.3324 O.2        0 <0>       -0.196
     48 O11       -10.1823    9.3231   70.1374 O.2        0 <0>       -0.230
     49 H1        -12.2225    7.9867   69.7773 H          0 <0>        0.000
     50 H2        -10.6542   11.7574   70.0219 H          0 <0>        0.000
     51 H4        -14.8899   13.9228   69.2162 H          0 <0>        0.000
@<TRIPOS>BOND
     1    1    2 1  
     2    2    4 am 
     3    2    5 2  
     4    3    4 1  
     5    6    4 1  
     6    7    3 1  
     7    8    1 1  
     8    9    1 1  
     9   10   11 am 
    10   10   15 am 
    11   15   14 am 
    12   12   19 2  
    13   14   13 2  
    14   14   16 1  
    15   16   17 1  
    16   10   20 2  
    17   17   18 2  
    18   11   21 1  
    19   18   13 1  
    20   13   12 1  
    21   12   11 am 
    22   15   22 1  
    23   16   23 1  
    24    3   17 1  
    25   24   30 1  
    26   25   30 1  
    27   26   30 1  
    28   27   28 ar 
    29   27   29 ar 
    30   27   30 1  
    31   28   31 ar 
    32   28   34 1  
    33   29   32 ar 
    34   29   35 1  
    35   31   33 ar 
    36   32   33 ar 
    37   32   36 1  
    38   33   37 1  
    39    3   31 1  
    40   38   39 am 
    41   38   43 am 
    42   43   42 am 
    43   40   47 2  
    44   42   41 2  
    45   42   44 1  
    46   44   45 1  
    47   38   48 2  
    48   45   46 2  
    49   39   49 1  
    50   46   41 1  
    51   41   40 1  
    52   40   39 am 
    53   43   50 1  
    54   45   51 1  
    55    1   44 1  
