@<TRIPOS>MOLECULE
ZLRQPHSUNQPBQY-FFHTYXGGSA-O
   63    65     1     1     1
SMALL
USER_CHARGES


@<TRIPOS>ATOM
      1 C05       -12.1490   14.0970   69.7190 C.3        0 <0>       -0.378
      2 C06       -11.6060   14.5460   68.3340 C.2        0 <0>       -0.371
      3 C08       -12.0040   15.4120   65.9580 C.3        0 <0>       -0.404
      4 N07       -12.5410   14.9950   67.2680 N.am       0 <0>       -0.286
      5 O28       -10.4380   14.5220   68.1180 O.2        0 <0>       -0.211
      6 H081      -12.8253   15.7094   65.3061 H          0 <0>        0.000
      7 H053      -12.6923   14.9214   70.1809 H          0 <0>        0.000
      8 C1        -13.8809   15.1117   67.2775 C.2        0 <0>       -0.158
      9 O1        -14.4202   15.6287   68.2444 O.2        0 <0>       -0.131
     10 O2        -14.5756   14.6578   66.2292 O.3        0 <0>       -0.103
     11 H2        -15.5153   14.7799   66.3182 H          0 <0>        0.000
     12 O1        -10.1108   12.9905   70.1599 O.2        0 <0>       -0.080
     13 C1        -11.0023   13.6969   70.6010 C.2        0 <0>       -0.161
     14 N1        -12.1432   13.0800   65.1230 N.4        0 <0>       -0.476
     15 C1        -11.2413   14.2368   65.3187 C.3        0 <0>       -0.444
     16 H2        -12.5565   12.7388   66.0631 H          0 <0>        0.000
     17 H3        -12.9726   13.3319   64.4753 H          0 <0>        0.000
     18 H5        -10.8296   14.5719   64.3529 H          0 <0>        0.000
     19 H6        -10.4028   13.9639   65.9799 H          0 <0>        0.000
     20 H1        -11.6218   12.2449   64.6745 H          0 <0>        0.000
     21 S1        -13.6688   10.5435   68.5835 S.2        0 <0>        0.209
     22 N1        -11.3834   11.7202   68.3095 N.ar       0 <0>       -0.367
     23 N2        -13.0151   12.9563   69.4927 N.pl3      0 <0>       -0.135
     24 C1        -12.5892   11.8572   68.8149 C.ar       0 <0>       -0.153
     25 C2        -12.4338    9.7102   67.7339 C.ar       0 <0>        0.015
     26 C3        -11.2961   10.4886   67.6904 C.ar       0 <0>       -0.270
     27 H1        -12.5926    8.7242   67.3214 H          0 <0>        0.000
     28 H2        -10.3678   10.2022   67.2149 H          0 <0>        0.000
     29 C1        -11.4067   13.4957   72.0324 C.3        0 <0>       -0.079
     30 H2        -10.6041   12.9940   72.5689 H          0 <0>        0.000
     31 O3        -11.6641   14.7652   72.6381 O.3        0 <0>       -0.406
     32 H4        -12.3066   12.8855   72.0728 H          0 <0>        0.000
     33 H6        -12.3791   15.2195   72.1654 H          0 <0>        0.000
     34 N1        -10.1081   19.5435   69.8809 N.1        0 <0>       -0.363
     35 C1        -10.0955   18.2586   67.6311 C.ar       0 <0>       -0.423
     36 C2        -11.0106   17.2292   67.4106 C.ar       0 <0>       -0.349
     37 C3         -9.1733   18.5959   66.6405 C.ar       0 <0>       -0.404
     38 C4        -11.0036   16.5374   66.1994 C.ar       0 <0>       -0.417
     39 C5         -9.1663   17.9041   65.4293 C.ar       0 <0>       -0.214
     40 C6        -10.0815   16.8749   65.2087 C.ar       0 <0>       -0.321
     41 C7        -10.1024   18.9673   68.8720 C.1        0 <0>       -0.419
     42 H1        -11.7355   16.9543   68.1731 H          0 <0>        0.000
     43 H4         -8.4483   18.1668   64.6579 H          0 <0>        0.000
     44 H5        -10.0760   16.3362   64.2656 H          0 <0>        0.000
     45 C1         -8.3308   20.8940   66.2634 C.2        0 <0>       -0.464
     46 C2         -8.1739   19.7067   66.8585 C.2        0 <0>       -0.422
     47 H2         -9.1832   21.0814   65.6101 H          0 <0>        0.000
     48 H3         -7.3216   19.5193   67.5118 H          0 <0>        0.000
     49 C1         -7.0156   21.4568   65.7802 C.ar       0 <0>       -0.292
     50 C2         -6.1438   22.0711   66.6843 C.ar       0 <0>       -0.090
     51 C3         -4.9259   22.5921   66.2368 C.ar       0 <0>       -0.122
     52 C4         -4.5800   22.4989   64.8854 C.ar       0 <0>       -0.023
     53 C5         -5.4519   21.8845   63.9813 C.ar       0 <0>       -0.148
     54 C6         -6.6697   21.3635   64.4288 C.ar       0 <0>       -0.260
     55 H2         -6.4125   22.1434   67.7336 H          0 <0>        0.000
     56 H3         -4.2490   23.0692   66.9388 H          0 <0>        0.000
     57 H4         -3.6344   22.9036   64.5380 H          0 <0>        0.000
     58 H5         -5.1832   21.8122   62.9319 H          0 <0>        0.000
     59 H6         -7.3467   20.8865   63.7267 H          0 <0>        0.000
     60 C1        -14.1792   12.8122   70.3451 C.3        0 <0>       -0.110
     61 H1        -15.0918   12.9229   69.7411 H          0 <0>        0.000
     62 H3        -14.1601   13.5869   71.1258 H          0 <0>        0.000
     63 H4        -14.1688   11.8176   70.8150 H          0 <0>        0.000
@<TRIPOS>BOND
     1    1    2 1  
     2    2    4 am 
     3    2    5 2  
     4    3    4 1  
     5    6    3 1  
     6    7    1 1  
     7    8    9 2  
     8    8   10 1  
     9   10   11 1  
    10    4    8 am 
    11   13   12 2  
    12    1   13 1  
    13   14   15 1  
    14   14   16 1  
    15   14   17 1  
    16   15   18 1  
    17   15   19 1  
    18   14   20 1  
    19    3   15 1  
    20   21   24 ar 
    21   21   25 ar 
    22   22   24 ar 
    23   22   26 ar 
    24   23   24 1  
    25   25   26 ar 
    26   25   27 1  
    27   26   28 1  
    28    1   23 1  
    29   29   30 1  
    30   29   31 1  
    31   29   32 1  
    32   31   33 1  
    33   13   29 1  
    34   34   41 3  
    35   35   36 ar 
    36   35   37 ar 
    37   35   41 1  
    38   36   38 ar 
    39   36   42 1  
    40   37   39 ar 
    41   38   40 ar 
    42   39   40 ar 
    43   39   43 1  
    44   40   44 1  
    45    3   38 1  
    46   45   46 2  
    47   45   47 1  
    48   46   48 1  
    49   37   46 1  
    50   49   50 ar 
    51   49   54 ar 
    52   50   51 ar 
    53   51   52 ar 
    54   52   53 ar 
    55   53   54 ar 
    56   50   55 1  
    57   51   56 1  
    58   52   57 1  
    59   53   58 1  
    60   54   59 1  
    61   45   49 1  
    62   60   61 1  
    63   60   62 1  
    64   60   63 1  
    65   23   60 1  
