@<TRIPOS>MOLECULE
NQRYZUVVCCHOIC-OQQNYJPCSA-N
   86    91     1     1     1
SMALL
USER_CHARGES


@<TRIPOS>ATOM
      1 C05       -12.1490   14.0970   69.7190 C.3        0 <0>       -0.378
      2 C06       -11.6060   14.5460   68.3340 C.2        0 <0>       -0.371
      3 C08       -12.0040   15.4120   65.9580 C.3        0 <0>       -0.404
      4 N07       -12.5410   14.9950   67.2680 N.am       0 <0>       -0.286
      5 O28       -10.4380   14.5220   68.1180 O.2        0 <0>       -0.211
      6 H07       -13.5362   15.0144   67.4393 H          0 <0>        0.000
      7 H081      -12.8253   15.7094   65.3061 H          0 <0>        0.000
      8 H051      -11.3163   13.8065   70.3595 H          0 <0>        0.000
      9 C1        -12.5666   11.7412   69.3136 C.2        0 <0>       -0.255
     10 O1        -11.3595   11.5530   69.3022 O.2        0 <0>       -0.351
     11 N1        -13.0577   12.9855   69.5156 N.am       0 <0>       -0.133
     12 N2        -13.4167   10.7058   69.1241 N.am       0 <0>       -0.070
     13 H1        -14.0428   13.1620   69.5288 H          0 <0>        0.000
     14 H3        -14.4089   10.8375   69.1295 H          0 <0>        0.000
     15 C1        -14.1711   15.9630   72.5054 C.3        0 <0>       -0.480
     16 C2        -13.3502   14.9694   71.7184 C.2        0 <0>       -0.658
     17 C3        -12.9809   15.2633   70.2841 C.3        0 <0>       -0.494
     18 O4        -12.9885   13.9379   72.2372 O.2        0 <0>       -0.516
     19 H6        -13.6390   16.9105   72.5599 H          0 <0>        0.000
     20 H7        -14.3360   15.5815   73.5109 H          0 <0>        0.000
     21 H9        -13.8867   15.3824   69.6934 H          0 <0>        0.000
     22 C1         -8.7485   20.1755   67.3181 C.2        0 <0>       -0.473
     23 N2         -7.9056   19.7619   66.3305 N.am       0 <0>       -0.370
     24 C3         -8.1288   18.6471   65.5961 C.2        0 <0>       -0.262
     25 C2         -9.3474   17.9232   65.9486 C.2        0 <0>       -0.348
     26 C3        -10.1652   18.3411   66.9203 C.2        0 <0>       -0.462
     27 N6         -9.8717   19.4635   67.6066 N.am       0 <0>       -0.469
     28 N3        -11.1778   17.5108   67.0271 N.pl3      0 <0>       -0.320
     29 C5        -11.0519   16.5559   66.1529 C.2        0 <0>       -0.422
     30 N4        -10.0010   16.7322   65.4847 N.2        0 <0>       -0.350
     31 O10        -7.3993   18.2437   64.7046 O.2        0 <0>       -0.042
     32 O11        -8.4960   21.1907   67.9490 O.2        0 <0>       -0.344
     33 H2        -10.4924   19.7662   68.3325 H          0 <0>        0.000
     34 H3        -11.9529   17.6029   67.7008 H          0 <0>        0.000
     35 C1        -14.4532    7.2757   72.7035 C.3        0 <0>       -0.610
     36 C2        -13.4714    6.1909   73.0974 C.2        0 <0>       -0.385
     37 C3        -12.3224    6.2289   72.4134 C.2        0 <0>       -0.384
     38 C4        -11.4787    7.8494   70.5191 C.ar       0 <0>       -0.339
     39 C5        -11.8335    8.9627   69.7481 C.ar       0 <0>       -0.311
     40 C6        -13.0814    9.5800   69.9147 C.ar       0 <0>       -0.369
     41 C7        -14.0015    9.0974   70.8537 C.ar       0 <0>       -0.495
     42 C8        -13.6429    7.9883   71.6213 C.ar       0 <0>       -0.601
     43 C9        -12.4057    7.3830   71.4513 C.ar       0 <0>       -0.462
     44 H1        -14.6733    7.9513   73.5436 H          0 <0>        0.000
     45 H2        -15.3824    6.8548   72.2909 H          0 <0>        0.000
     46 H3        -13.6839    5.4493   73.8672 H          0 <0>        0.000
     47 H4        -11.4762    5.5521   72.5260 H          0 <0>        0.000
     48 H5        -10.5168    7.3623   70.3998 H          0 <0>        0.000
     49 H6        -11.1346    9.3511   69.0138 H          0 <0>        0.000
     50 H8        -14.9693    9.5698   70.9852 H          0 <0>        0.000
     51 O1        -11.1943   15.5368   63.3196 O.2        0 <0>       -0.376
     52 O2        -11.4283   10.9757   62.6947 O.2        0 <0>       -0.375
     53 N1        -11.3439   13.2542   63.0340 N.am       0 <0>       -0.462
     54 C1        -12.0801   12.9314   65.6649 C.3        0 <0>       -0.458
     55 C2        -11.3249   14.1964   65.3001 C.3        0 <0>       -0.454
     56 C3        -11.4509   11.7415   64.9638 C.3        0 <0>       -0.363
     57 C4        -11.3005   14.4111   63.8055 C.2        0 <0>       -0.448
     58 C5        -11.4275   11.9344   63.4662 C.2        0 <0>       -0.536
     59 H1        -12.0594   12.7817   66.7497 H          0 <0>        0.000
     60 H2        -13.1311   13.0266   65.3646 H          0 <0>        0.000
     61 H3        -10.2891   14.1493   65.6545 H          0 <0>        0.000
     62 H5        -12.0248   10.8362   65.1891 H          0 <0>        0.000
     63 H7        -11.3108   13.3905   62.0273 H          0 <0>        0.000
     64 N1         -2.3330   23.4193   65.0019 N.1        0 <0>       -0.167
     65 C1         -4.4574   22.0254   65.5086 C.ar       0 <0>       -0.172
     66 C2         -4.6439   21.4738   66.7761 C.ar       0 <0>       -0.327
     67 C3         -5.4144   21.8260   64.5136 C.ar       0 <0>       -0.141
     68 C4         -5.7876   20.7231   67.0486 C.ar       0 <0>       -0.357
     69 C5         -6.5580   21.0753   64.7861 C.ar       0 <0>       -0.316
     70 C6         -6.7447   20.5240   66.0537 C.ar       0 <0>       -0.395
     71 C7         -3.2857   22.7943   65.2291 C.1        0 <0>       -0.150
     72 H1         -3.9070   21.6202   67.5622 H          0 <0>        0.000
     73 H2         -5.2831   22.2493   63.5206 H          0 <0>        0.000
     74 H3         -5.9330   20.2937   68.0356 H          0 <0>        0.000
     75 H4         -7.3032   20.9201   64.0115 H          0 <0>        0.000
     76 F2        -12.2504   16.4092   70.2298 F          0 <0>       -0.318
     77 C1         -9.4012   10.3827   65.1767 C.2        0 <0>       -0.256
     78 C2        -10.0396   11.5303   65.4292 C.2        0 <0>       -0.299
     79 H1         -9.8941    9.5798   64.6283 H          0 <0>        0.000
     80 H2         -8.3762   10.2293   65.5147 H          0 <0>        0.000
     81 H4         -9.5467   12.3332   65.9775 H          0 <0>        0.000
     82 C1        -15.5397   16.1658   71.8294 C.3        0 <0>       -0.355
     83 O3        -16.0160   14.9128   71.3317 O.3        0 <0>       -0.507
     84 H4        -15.4363   16.8679   71.0046 H          0 <0>        0.000
     85 H5        -16.2478   16.5607   72.5551 H          0 <0>        0.000
     86 H6        -16.8784   15.0318   70.9038 H          0 <0>        0.000
@<TRIPOS>BOND
     1    1    2 1  
     2    2    4 am 
     3    2    5 2  
     4    3    4 1  
     5    6    4 1  
     6    7    3 1  
     7    8    1 1  
     8    9   10 2  
     9    9   11 am 
    10    9   12 am 
    11   11   13 1  
    12   12   14 1  
    13    1   11 1  
    14   16   15 1  
    15   16   17 1  
    16   16   18 2  
    17   15   19 1  
    18   15   20 1  
    19   17   21 1  
    20    1   17 1  
    21   22   23 am 
    22   22   27 am 
    23   27   26 am 
    24   24   31 2  
    25   26   25 2  
    26   26   28 1  
    27   28   29 1  
    28   22   32 2  
    29   29   30 2  
    30   30   25 1  
    31   25   24 1  
    32   24   23 am 
    33   27   33 1  
    34   28   34 1  
    35    3   29 1  
    36   36   35 1  
    37   35   42 1  
    38   37   36 2  
    39   43   37 1  
    40   38   39 ar 
    41   38   43 ar 
    42   39   40 ar 
    43   40   41 ar 
    44   41   42 ar 
    45   42   43 ar 
    46   35   44 1  
    47   35   45 1  
    48   36   46 1  
    49   37   47 1  
    50   38   48 1  
    51   39   49 1  
    52   41   50 1  
    53   12   40 1  
    54   51   57 2  
    55   52   58 2  
    56   53   57 am 
    57   53   58 am 
    58   53   63 1  
    59   54   55 1  
    60   54   56 1  
    61   54   59 1  
    62   54   60 1  
    63   55   57 1  
    64   55   61 1  
    65   56   58 1  
    66   56   62 1  
    67    3   55 1  
    68   64   71 3  
    69   65   66 ar 
    70   65   67 ar 
    71   65   71 1  
    72   66   68 ar 
    73   66   72 1  
    74   67   69 ar 
    75   67   73 1  
    76   68   70 ar 
    77   68   74 1  
    78   69   70 ar 
    79   69   75 1  
    80   23   70 1  
    81   17   76 1  
    82   77   78 2  
    83   77   79 1  
    84   77   80 1  
    85   78   81 1  
    86   56   78 1  
    87   82   83 1  
    88   82   84 1  
    89   82   85 1  
    90   83   86 1  
    91   15   82 1  
