@<TRIPOS>MOLECULE
UEKZJBANXNKWMV-YGPZHTELSA-Q
   40    40     1     1     1
SMALL
USER_CHARGES


@<TRIPOS>ATOM
      1 N1         51.9280    5.8730   54.8550 N.4        0 <0>       -0.387
      2 N3         54.0680    6.4410   53.4330 N.4        0 <0>       -0.300
      3 C11        51.8950    5.2840   53.5120 C.3        0 <0>       -0.537
      4 C12        52.8420    6.1110   52.6610 C.3        0 <0>       -0.434
      5 C14        54.8480    5.5280   54.3130 C.3        0 <0>       -0.367
      6 C15        53.9780    4.6240   55.1930 C.3        0 <0>       -0.412
      7 C16        52.8810    5.4380   55.8900 C.3        0 <0>       -0.410
      8 H112       52.2270    4.2460   53.5470 H          0 <0>        0.000
      9 H113       50.8850    5.3380   53.1060 H          0 <0>        0.000
     10 H122       52.3450    7.0340   52.3620 H          0 <0>        0.000
     11 H123       53.1170    5.5440   51.7710 H          0 <0>        0.000
     12 H14        55.4470    6.1500   54.9780 H          0 <0>        0.000
     13 H152       54.6050    4.1490   55.9480 H          0 <0>        0.000
     14 H162       53.3180    6.3070   56.3820 H          0 <0>        0.000
     15 H163       52.3700    4.8160   56.6250 H          0 <0>        0.000
     16 H12        52.0900    6.8612   54.7232 H          0 <0>        0.000
     17 H13        51.0015    5.7740   55.2448 H          0 <0>        0.000
     18 H32        54.7303    6.7647   52.7426 H          0 <0>        0.000
     19 H33        53.8359    7.2452   53.9982 H          0 <0>        0.000
     20 H142       55.5075    4.9120   53.7018 H          0 <0>        0.000
     21 O          54.8601    2.9017   53.2494 O.3        0 <0>       -0.547
     22 C          55.8786    2.5451   52.3258 C.3        0 <0>       -0.206
     23 O          55.4937    2.8366   54.5607 O.3        0 <0>       -0.327
     24 C          54.4761    3.1962   55.4841 C.3        0 <0>       -0.217
     25 H          55.4599    2.5763   51.3166 H          0 <0>        0.000
     26 H          56.2341    1.5313   52.5315 H          0 <0>        0.000
     27 H          56.7080    3.2555   52.3883 H          0 <0>        0.000
     28 H          54.8948    3.1652   56.4932 H          0 <0>        0.000
     29 N          57.8225    5.9764   56.8878 N.4        0 <0>       -0.390
     30 C          56.8639    4.8866   56.9157 C.3        0 <0>       -0.277
     31 S          57.1487    3.8433   55.4671 S.3        0 <0>       -0.205
     32 C          55.8682    2.6019   55.7678 C.3        0 <0>       -0.138
     33 O          57.0853    4.1394   58.0848 O.3        0 <0>        0.009
     34 O          57.4343    6.8947   57.9512 O.3        0 <0>       -0.504
     35 H          57.6418    6.5250   56.0460 H          0 <0>        0.000
     36 H          55.8329    5.2611   56.9031 H          0 <0>        0.000
     37 H          56.0284    1.7564   55.0929 H          0 <0>        0.000
     38 H          55.9062    2.2271   56.7936 H          0 <0>        0.000
     39 H          58.0250    3.9117   57.9985 H          0 <0>        0.000
     40 H          58.1980    6.8336   58.5588 H          0 <0>        0.000
@<TRIPOS>BOND
     1    3    1 1  
     2    3    4 1  
     3    3    8 1  
     4    3    9 1  
     5    4    2 1  
     6    4   10 1  
     7    4   11 1  
     8    5    2 1  
     9    5    6 1  
    10    5   12 1  
    11    6    7 1  
    12    6   13 1  
    13    7    1 1  
    14    7   14 1  
    15    7   15 1  
    16   16    1 1  
    17   17    1 1  
    18   18    2 1  
    19   19    2 1  
    20   20    5 1  
    21   21   22 1  
    22   21   23 1  
    23   23   24 1  
    24   22   25 1  
    25   22   26 1  
    26   22   27 1  
    27   24   28 1  
    28    6   24 1  
    29   29   30 1  
    30   30   31 1  
    31   31   32 1  
    32   30   33 1  
    33   29   34 1  
    34   29   35 1  
    35   30   36 1  
    36   32   37 1  
    37   32   38 1  
    38   33   39 1  
    39   34   40 1  
    40   24   32 1  
