@<TRIPOS>MOLECULE
VRHSZEGSVHYNRJ-AEJSXWLSSA-P
   43    43     1     1     1
SMALL
USER_CHARGES


@<TRIPOS>ATOM
      1 N1         51.9280    5.8730   54.8550 N.4        0 <0>       -0.387
      2 N3         54.0680    6.4410   53.4330 N.4        0 <0>       -0.300
      3 C11        51.8950    5.2840   53.5120 C.3        0 <0>       -0.537
      4 C12        52.8420    6.1110   52.6610 C.3        0 <0>       -0.434
      5 C14        54.8480    5.5280   54.3130 C.3        0 <0>       -0.367
      6 C15        53.9780    4.6240   55.1930 C.3        0 <0>       -0.412
      7 C16        52.8810    5.4380   55.8900 C.3        0 <0>       -0.410
      8 H112       52.2270    4.2460   53.5470 H          0 <0>        0.000
      9 H113       50.8850    5.3380   53.1060 H          0 <0>        0.000
     10 H122       52.3450    7.0340   52.3620 H          0 <0>        0.000
     11 H123       53.1170    5.5440   51.7710 H          0 <0>        0.000
     12 H14        55.4470    6.1500   54.9780 H          0 <0>        0.000
     13 H152       54.6050    4.1490   55.9480 H          0 <0>        0.000
     14 H163       52.3700    4.8160   56.6250 H          0 <0>        0.000
     15 H12        52.0900    6.8612   54.7232 H          0 <0>        0.000
     16 H13        51.0015    5.7740   55.2448 H          0 <0>        0.000
     17 H32        54.7303    6.7647   52.7426 H          0 <0>        0.000
     18 H33        53.8359    7.2452   53.9982 H          0 <0>        0.000
     19 H142       55.5075    4.9120   53.7018 H          0 <0>        0.000
     20 O          54.8601    2.9017   53.2494 O.3        0 <0>       -0.547
     21 C          55.8786    2.5451   52.3258 C.3        0 <0>       -0.206
     22 O          55.4937    2.8366   54.5607 O.3        0 <0>       -0.327
     23 C          54.4761    3.1962   55.4841 C.3        0 <0>       -0.217
     24 H          55.4599    2.5763   51.3166 H          0 <0>        0.000
     25 H          56.2341    1.5313   52.5315 H          0 <0>        0.000
     26 H          56.7080    3.2555   52.3883 H          0 <0>        0.000
     27 H          53.6453    2.4871   55.4223 H          0 <0>        0.000
     28 O          54.3406    6.2111   58.4476 O.3        0 <0>       -0.400
     29 S          53.2747    4.9421   58.5544 S.3        0 <0>       -0.313
     30 C          52.1483    5.4651   57.2443 C.3        0 <0>       -0.448
     31 O          55.3009    5.9647   57.3973 O.3        0 <0>       -0.416
     32 H          51.2899    4.7869   57.1975 H          0 <0>        0.000
     33 H          51.7887    6.4797   57.4440 H          0 <0>        0.000
     34 H          56.0708    6.2995   57.8912 H          0 <0>        0.000
     35 N          54.5263    1.1340   56.8004 N.3        0 <0>       -0.304
     36 C          55.0690    1.7808   55.6135 C.3        0 <0>       -0.087
     37 C          55.0717   -0.2075   56.9579 C.3        0 <0>       -0.297
     38 H          53.5118    1.0759   56.7166 H          0 <0>        0.000
     39 H          56.1568    1.8845   55.6814 H          0 <0>        0.000
     40 H          54.8181    1.2260   54.7034 H          0 <0>        0.000
     41 H          56.1597   -0.1808   57.0781 H          0 <0>        0.000
     42 H          54.8210   -0.8459   56.1045 H          0 <0>        0.000
     43 H          54.6525   -0.6681   57.8577 H          0 <0>        0.000
@<TRIPOS>BOND
     1    3    1 1  
     2    3    4 1  
     3    3    8 1  
     4    3    9 1  
     5    4    2 1  
     6    4   10 1  
     7    4   11 1  
     8    5    2 1  
     9    5    6 1  
    10    5   12 1  
    11    6    7 1  
    12    6   13 1  
    13    7    1 1  
    14    7   14 1  
    15   15    1 1  
    16   16    1 1  
    17   17    2 1  
    18   18    2 1  
    19   19    5 1  
    20   20   21 1  
    21   20   22 1  
    22   22   23 1  
    23   21   24 1  
    24   21   25 1  
    25   21   26 1  
    26   23   27 1  
    27    6   23 1  
    28   28   29 1  
    29   29   30 1  
    30   28   31 1  
    31   30   32 1  
    32   30   33 1  
    33   31   34 1  
    34    7   30 1  
    35   35   36 1  
    36   35   37 1  
    37   35   38 1  
    38   36   39 1  
    39   36   40 1  
    40   37   41 1  
    41   37   42 1  
    42   37   43 1  
    43   23   36 1  
