@<TRIPOS>MOLECULE
RGNKTKURTWKSCV-UJJBAJKGSA-N
   61    64     1     1     1
SMALL
USER_CHARGES


@<TRIPOS>ATOM
      1 C05       -12.1490   14.0970   69.7190 C.3        0 <0>       -0.378
      2 C06       -11.6060   14.5460   68.3340 C.2        0 <0>       -0.371
      3 C08       -12.0040   15.4120   65.9580 C.3        0 <0>       -0.404
      4 N07       -12.5410   14.9950   67.2680 N.am       0 <0>       -0.286
      5 O28       -10.4380   14.5220   68.1180 O.2        0 <0>       -0.211
      6 H081      -12.8253   15.7094   65.3061 H          0 <0>        0.000
      7 H051      -11.3163   13.8065   70.3595 H          0 <0>        0.000
      8 H052      -12.8198   13.2479   69.5881 H          0 <0>        0.000
      9 C1        -11.1054   16.5955   66.1702 C.2        0 <0>       -0.419
     10 O1        -10.8482   16.8976   67.3246 O.2        0 <0>       -0.321
     11 N1        -10.6201   17.2738   65.1090 N.am       0 <0>       -0.473
     12 C1         -4.6811   18.9259   67.4332 C.ar       0 <0>       -0.129
     13 C2         -3.8714   17.7931   67.5516 C.ar       0 <0>       -0.102
     14 C3         -4.3716   16.5391   67.1928 C.ar       0 <0>       -0.131
     15 C4         -5.6801   16.4212   66.7166 C.ar       0 <0>       -0.154
     16 C5        -10.1003   18.5387   65.4764 C.ar       0 <0>       -0.360
     17 C6        -10.9101   19.6715   65.3583 C.ar       0 <0>       -0.366
     18 C7        -10.4100   20.9256   65.7171 C.ar       0 <0>       -0.250
     19 C8         -9.1014   21.0436   66.1931 C.ar       0 <0>       -0.439
     20 C9         -6.8713   20.0345   66.8272 C.2        0 <0>       -0.363
     21 C10        -5.9920   18.8102   66.9566 C.ar       0 <0>       -0.204
     22 C11        -6.4930   17.5543   66.5972 C.ar       0 <0>       -0.242
     23 C12        -8.7894   18.6546   65.9529 C.ar       0 <0>       -0.297
     24 C13        -8.2885   19.9104   66.3123 C.ar       0 <0>       -0.425
     25 H1         -4.2827   19.8954   67.7148 H          0 <0>        0.000
     26 H2         -2.8551   17.8871   67.9218 H          0 <0>        0.000
     27 H3         -3.7442   15.6575   67.2840 H          0 <0>        0.000
     28 H4         -6.0587   15.4423   66.4406 H          0 <0>        0.000
     29 H6        -11.9266   19.5775   64.9883 H          0 <0>        0.000
     30 H7        -11.0375   21.8070   65.6262 H          0 <0>        0.000
     31 H8         -8.7228   22.0224   66.4691 H          0 <0>        0.000
     32 O22        -6.4343   21.1303   67.1405 O.2        0 <0>       -0.402
     33 C24        -7.9099   17.4303   66.0821 C.2        0 <0>       -0.299
     34 O25        -8.3468   16.3345   65.7683 O.2        0 <0>       -0.200
     35 C         -11.5186   12.6580   63.6186 C.2        0 <0>       -0.580
     36 O         -10.4185   12.2020   63.8901 O.2        0 <0>       -0.407
     37 O         -12.0655   13.6976   64.2668 O.3        0 <0>       -0.532
     38 C5        -11.2413   14.2368   65.3187 C.3        0 <0>       -0.444
     39 H1        -11.0453   13.4841   66.0987 H          0 <0>        0.000
     40 H3        -10.2860   14.6167   64.9228 H          0 <0>        0.000
     41 C1        -12.8971   15.2322   70.3550 C.2        0 <0>       -0.508
     42 O1        -14.0750   15.0447   70.6151 O.2        0 <0>       -0.488
     43 N1        -12.2651   16.3962   70.6148 N.am       0 <0>       -0.321
     44 H2        -11.2968   16.5090   70.3855 H          0 <0>        0.000
     45 H3        -12.7619   17.1548   71.0390 H          0 <0>        0.000
     46 C1        -10.9859   17.0407   63.7254 C.3        0 <0>       -0.023
     47 H1        -10.7060   16.0160   63.4399 H          0 <0>        0.000
     48 H3        -10.4573   17.7582   63.0806 H          0 <0>        0.000
     49 H4        -12.0716   17.1711   63.6062 H          0 <0>        0.000
     50 Cl2       -12.4279   11.9185   62.3190 Cl         0 <0>       -0.295
     51 F1        -13.4455   12.3731   67.2423 F          0 <0>       -0.010
     52 F2        -14.4571   16.9998   67.2636 F          0 <0>       -0.143
     53 C1        -13.9242   14.6925   67.2534 C.ar       0 <0>       -0.076
     54 C2        -14.3474   13.3633   67.2409 C.ar       0 <0>        0.143
     55 C3        -14.8638   15.7235   67.2512 C.ar       0 <0>       -0.126
     56 C4        -15.7099   13.0652   67.2265 C.ar       0 <0>        0.303
     57 C5        -16.2263   15.4255   67.2370 C.ar       0 <0>        0.033
     58 C6        -16.6493   14.0963   67.2245 C.ar       0 <0>        0.336
     59 H2        -16.0390   12.0303   67.2167 H          0 <0>        0.000
     60 H3        -16.9574   16.2284   67.2355 H          0 <0>        0.000
     61 H4        -17.7103   13.8643   67.2134 H          0 <0>        0.000
@<TRIPOS>BOND
     1    1    2 1  
     2    2    4 am 
     3    2    5 2  
     4    3    4 1  
     5    6    3 1  
     6    7    1 1  
     7    8    1 1  
     8    9   10 2  
     9    9   11 am 
    10    3    9 1  
    11   12   13 ar 
    12   12   21 ar 
    13   12   25 1  
    14   21   20 1  
    15   21   22 ar 
    16   22   15 ar 
    17   23   33 1  
    18   23   16 ar 
    19   24   23 ar 
    20   24   19 ar 
    21   20   24 1  
    22   20   32 2  
    23   19   18 ar 
    24   19   31 1  
    25   18   17 ar 
    26   18   30 1  
    27   16   17 ar 
    28   17   29 1  
    29   15   14 ar 
    30   15   28 1  
    31   13   14 ar 
    32   14   27 1  
    33   13   26 1  
    34   22   33 1  
    35   33   34 2  
    36   11   16 1  
    37   35   36 2  
    38   35   37 1  
    39   37   38 1  
    40   38   39 1  
    41   38   40 1  
    42    3   38 1  
    43   41   42 2  
    44   41   43 am 
    45   43   44 1  
    46   43   45 1  
    47    1   41 1  
    48   46   47 1  
    49   46   48 1  
    50   46   49 1  
    51   11   46 1  
    52   35   50 1  
    53   51   54 1  
    54   52   55 1  
    55   53   54 ar 
    56   53   55 ar 
    57   54   56 ar 
    58   55   57 ar 
    59   56   58 ar 
    60   56   59 1  
    61   57   58 ar 
    62   57   60 1  
    63   58   61 1  
    64    4   53 1  
