@<TRIPOS>MOLECULE
IPNGNYZWALHJOM-IVZWLZJFSA-P
   43    43     1     1     1
SMALL
USER_CHARGES


@<TRIPOS>ATOM
      1 N1         51.9280    5.8730   54.8550 N.4        0 <0>       -0.387
      2 N3         54.0680    6.4410   53.4330 N.4        0 <0>       -0.300
      3 C11        51.8950    5.2840   53.5120 C.3        0 <0>       -0.537
      4 C12        52.8420    6.1110   52.6610 C.3        0 <0>       -0.434
      5 C14        54.8480    5.5280   54.3130 C.3        0 <0>       -0.367
      6 C15        53.9780    4.6240   55.1930 C.3        0 <0>       -0.412
      7 C16        52.8810    5.4380   55.8900 C.3        0 <0>       -0.410
      8 H112       52.2270    4.2460   53.5470 H          0 <0>        0.000
      9 H113       50.8850    5.3380   53.1060 H          0 <0>        0.000
     10 H122       52.3450    7.0340   52.3620 H          0 <0>        0.000
     11 H123       53.1170    5.5440   51.7710 H          0 <0>        0.000
     12 H14        55.4470    6.1500   54.9780 H          0 <0>        0.000
     13 H152       54.6050    4.1490   55.9480 H          0 <0>        0.000
     14 H163       52.3700    4.8160   56.6250 H          0 <0>        0.000
     15 H12        52.0900    6.8612   54.7232 H          0 <0>        0.000
     16 H13        51.0015    5.7740   55.2448 H          0 <0>        0.000
     17 H32        54.7303    6.7647   52.7426 H          0 <0>        0.000
     18 H33        53.8359    7.2452   53.9982 H          0 <0>        0.000
     19 H142       55.5075    4.9120   53.7018 H          0 <0>        0.000
     20 O          54.8601    2.9017   53.2494 O.3        0 <0>       -0.547
     21 C          55.8786    2.5451   52.3258 C.3        0 <0>       -0.206
     22 O          55.4937    2.8366   54.5607 O.3        0 <0>       -0.327
     23 C          54.4761    3.1962   55.4841 C.3        0 <0>       -0.217
     24 H          55.4599    2.5763   51.3166 H          0 <0>        0.000
     25 H          56.2341    1.5313   52.5315 H          0 <0>        0.000
     26 H          56.7080    3.2555   52.3883 H          0 <0>        0.000
     27 H          54.8948    3.1652   56.4932 H          0 <0>        0.000
     28 O          54.0602   -0.7622   55.9478 O.3        0 <0>       -0.319
     29 S          55.0810    0.5397   55.8029 S.3        0 <0>       -0.112
     30 C          53.8181    1.8282   55.7435 C.3        0 <0>       -0.133
     31 O          53.6802   -0.9427   57.3295 O.3        0 <0>       -0.528
     32 H          53.2867    1.8656   56.6967 H          0 <0>        0.000
     33 H          53.1074    1.6175   54.9379 H          0 <0>        0.000
     34 H          53.7497   -1.9142   57.3217 H          0 <0>        0.000
     35 O          54.5075    5.8000   57.6550 O.3        0 <0>       -0.400
     36 C          53.1875    5.3437   57.3963 C.3        0 <0>       -0.429
     37 O          54.5247    7.1894   57.2141 O.3        0 <0>       -0.235
     38 C          55.8438    7.6467   57.4756 C.3        0 <0>       -0.370
     39 H          53.1128    4.2990   57.7088 H          0 <0>        0.000
     40 H          52.4664    5.9372   57.9657 H          0 <0>        0.000
     41 H          55.9184    8.6914   57.1633 H          0 <0>        0.000
     42 H          56.5664    7.0536   56.9075 H          0 <0>        0.000
     43 H          56.0595    7.5797   58.5459 H          0 <0>        0.000
@<TRIPOS>BOND
     1    3    1 1  
     2    3    4 1  
     3    3    8 1  
     4    3    9 1  
     5    4    2 1  
     6    4   10 1  
     7    4   11 1  
     8    5    2 1  
     9    5    6 1  
    10    5   12 1  
    11    6    7 1  
    12    6   13 1  
    13    7    1 1  
    14    7   14 1  
    15   15    1 1  
    16   16    1 1  
    17   17    2 1  
    18   18    2 1  
    19   19    5 1  
    20   20   21 1  
    21   20   22 1  
    22   22   23 1  
    23   21   24 1  
    24   21   25 1  
    25   21   26 1  
    26   23   27 1  
    27    6   23 1  
    28   28   29 1  
    29   29   30 1  
    30   28   31 1  
    31   30   32 1  
    32   30   33 1  
    33   31   34 1  
    34   23   30 1  
    35   35   36 1  
    36   35   37 1  
    37   37   38 1  
    38   36   39 1  
    39   36   40 1  
    40   38   41 1  
    41   38   42 1  
    42   38   43 1  
    43    7   36 1  
